*SPEF "ieee 1481-1999"
*DESIGN "macro_7"
*DATE "11:11:11 Fri 11 11, 1111"
*VENDOR "OpenRCX"
*PROGRAM "Parallel Extraction"
*VERSION "1.0"
*DESIGN_FLOW "NAME_SCOPE LOCAL" "PIN_CAP NONE"
*DIVIDER /
*DELIMITER :
*BUS_DELIMITER []
*T_UNIT 1 NS
*C_UNIT 1 PF
*R_UNIT 1 OHM
*L_UNIT 1 HENRY

*NAME_MAP
*1 active
*2 analog_io[0]
*3 analog_io[10]
*4 analog_io[11]
*5 analog_io[12]
*6 analog_io[13]
*7 analog_io[14]
*8 analog_io[15]
*9 analog_io[16]
*10 analog_io[17]
*11 analog_io[18]
*12 analog_io[19]
*13 analog_io[1]
*14 analog_io[20]
*15 analog_io[21]
*16 analog_io[22]
*17 analog_io[23]
*18 analog_io[24]
*19 analog_io[25]
*20 analog_io[26]
*21 analog_io[27]
*22 analog_io[28]
*23 analog_io[2]
*24 analog_io[3]
*25 analog_io[4]
*26 analog_io[5]
*27 analog_io[6]
*28 analog_io[7]
*29 analog_io[8]
*30 analog_io[9]
*31 io_in[0]
*32 io_in[10]
*33 io_in[11]
*34 io_in[12]
*35 io_in[13]
*36 io_in[14]
*37 io_in[15]
*38 io_in[16]
*39 io_in[17]
*40 io_in[18]
*41 io_in[19]
*42 io_in[1]
*43 io_in[20]
*44 io_in[21]
*45 io_in[22]
*46 io_in[23]
*47 io_in[24]
*48 io_in[25]
*49 io_in[26]
*50 io_in[27]
*51 io_in[28]
*52 io_in[29]
*53 io_in[2]
*54 io_in[30]
*55 io_in[31]
*56 io_in[32]
*57 io_in[33]
*58 io_in[34]
*59 io_in[35]
*60 io_in[36]
*61 io_in[37]
*62 io_in[3]
*63 io_in[4]
*64 io_in[5]
*65 io_in[6]
*66 io_in[7]
*67 io_in[8]
*68 io_in[9]
*69 net49
*70 net59
*71 net60
*72 net61
*73 net62
*74 net63
*75 net64
*76 net65
*77 net66
*78 net67
*79 net68
*80 net50
*81 net69
*82 net70
*83 net71
*84 net72
*85 net73
*86 net74
*87 net75
*88 net76
*89 net77
*90 net78
*91 net51
*92 net79
*93 net80
*94 net81
*95 net82
*96 net83
*97 net84
*98 net85
*99 net86
*100 net52
*101 net53
*102 net54
*103 net55
*104 net56
*105 net57
*106 net58
*107 io_out[0]
*108 io_out[10]
*109 io_out[11]
*110 io_out[12]
*111 io_out[13]
*112 io_out[14]
*113 io_out[15]
*114 io_out[16]
*115 io_out[17]
*116 io_out[18]
*117 io_out[19]
*118 io_out[1]
*119 io_out[20]
*120 io_out[21]
*121 io_out[22]
*122 io_out[23]
*123 io_out[24]
*124 io_out[25]
*125 io_out[26]
*126 io_out[27]
*127 io_out[28]
*128 io_out[29]
*129 io_out[2]
*130 io_out[30]
*131 io_out[31]
*132 io_out[32]
*133 io_out[33]
*134 io_out[34]
*135 io_out[35]
*136 io_out[36]
*137 io_out[37]
*138 io_out[3]
*139 io_out[4]
*140 io_out[5]
*141 io_out[6]
*142 io_out[7]
*143 io_out[8]
*144 io_out[9]
*145 la_data_in[0]
*146 la_data_in[100]
*147 la_data_in[101]
*148 la_data_in[102]
*149 la_data_in[103]
*150 la_data_in[104]
*151 la_data_in[105]
*152 la_data_in[106]
*153 la_data_in[107]
*154 la_data_in[108]
*155 la_data_in[109]
*156 la_data_in[10]
*157 la_data_in[110]
*158 la_data_in[111]
*159 la_data_in[112]
*160 la_data_in[113]
*161 la_data_in[114]
*162 la_data_in[115]
*163 la_data_in[116]
*164 la_data_in[117]
*165 la_data_in[118]
*166 la_data_in[119]
*167 la_data_in[11]
*168 la_data_in[120]
*169 la_data_in[121]
*170 la_data_in[122]
*171 la_data_in[123]
*172 la_data_in[124]
*173 la_data_in[125]
*174 la_data_in[126]
*175 la_data_in[127]
*176 la_data_in[12]
*177 la_data_in[13]
*178 la_data_in[14]
*179 la_data_in[15]
*180 la_data_in[16]
*181 la_data_in[17]
*182 la_data_in[18]
*183 la_data_in[19]
*184 la_data_in[1]
*185 la_data_in[20]
*186 la_data_in[21]
*187 la_data_in[22]
*188 la_data_in[23]
*189 la_data_in[24]
*190 la_data_in[25]
*191 la_data_in[26]
*192 la_data_in[27]
*193 la_data_in[28]
*194 la_data_in[29]
*195 la_data_in[2]
*196 la_data_in[30]
*197 la_data_in[31]
*198 la_data_in[32]
*199 la_data_in[33]
*200 la_data_in[34]
*201 la_data_in[35]
*202 la_data_in[36]
*203 la_data_in[37]
*204 la_data_in[38]
*205 la_data_in[39]
*206 la_data_in[3]
*207 la_data_in[40]
*208 la_data_in[41]
*209 la_data_in[42]
*210 la_data_in[43]
*211 la_data_in[44]
*212 la_data_in[45]
*213 la_data_in[46]
*214 la_data_in[47]
*215 la_data_in[48]
*216 la_data_in[49]
*217 la_data_in[4]
*218 la_data_in[50]
*219 la_data_in[51]
*220 la_data_in[52]
*221 la_data_in[53]
*222 la_data_in[54]
*223 la_data_in[55]
*224 la_data_in[56]
*225 la_data_in[57]
*226 la_data_in[58]
*227 la_data_in[59]
*228 la_data_in[5]
*229 la_data_in[60]
*230 la_data_in[61]
*231 la_data_in[62]
*232 la_data_in[63]
*233 la_data_in[64]
*234 la_data_in[65]
*235 la_data_in[66]
*236 la_data_in[67]
*237 la_data_in[68]
*238 la_data_in[69]
*239 la_data_in[6]
*240 la_data_in[70]
*241 la_data_in[71]
*242 la_data_in[72]
*243 la_data_in[73]
*244 la_data_in[74]
*245 la_data_in[75]
*246 la_data_in[76]
*247 la_data_in[77]
*248 la_data_in[78]
*249 la_data_in[79]
*250 la_data_in[7]
*251 la_data_in[80]
*252 la_data_in[81]
*253 la_data_in[82]
*254 la_data_in[83]
*255 la_data_in[84]
*256 la_data_in[85]
*257 la_data_in[86]
*258 la_data_in[87]
*259 la_data_in[88]
*260 la_data_in[89]
*261 la_data_in[8]
*262 la_data_in[90]
*263 la_data_in[91]
*264 la_data_in[92]
*265 la_data_in[93]
*266 la_data_in[94]
*267 la_data_in[95]
*268 la_data_in[96]
*269 la_data_in[97]
*270 la_data_in[98]
*271 la_data_in[99]
*272 la_data_in[9]
*273 net87
*274 net187
*275 net188
*276 net189
*277 net190
*278 net191
*279 net192
*280 net193
*281 net194
*282 net195
*283 net196
*284 net97
*285 net197
*286 net198
*287 net199
*288 net200
*289 net201
*290 net202
*291 net203
*292 net204
*293 net205
*294 net206
*295 net98
*296 net207
*297 net208
*298 net209
*299 net210
*300 net211
*301 net212
*302 net213
*303 net214
*304 net99
*305 net100
*306 net101
*307 net102
*308 net103
*309 net104
*310 net105
*311 net106
*312 net88
*313 net107
*314 net108
*315 net109
*316 net110
*317 net111
*318 net112
*319 net113
*320 net114
*321 net115
*322 net116
*323 net89
*324 net117
*325 net118
*326 net119
*327 net120
*328 net121
*329 net122
*330 net123
*331 net124
*332 net125
*333 net126
*334 net90
*335 net127
*336 net128
*337 net129
*338 net130
*339 net131
*340 net132
*341 net133
*342 net134
*343 net135
*344 net136
*345 net91
*346 net137
*347 net138
*348 net139
*349 net140
*350 net141
*351 net142
*352 net143
*353 net144
*354 net145
*355 net146
*356 net92
*357 net147
*358 net148
*359 net149
*360 net150
*361 net151
*362 net152
*363 net153
*364 net154
*365 net155
*366 net156
*367 net93
*368 net157
*369 net158
*370 net159
*371 net160
*372 net161
*373 net162
*374 net163
*375 net164
*376 net165
*377 net166
*378 net94
*379 net167
*380 net168
*381 net169
*382 net170
*383 net171
*384 net172
*385 net173
*386 net174
*387 net175
*388 net176
*389 net95
*390 net177
*391 net178
*392 net179
*393 net180
*394 net181
*395 net182
*396 net183
*397 net184
*398 net185
*399 net186
*400 net96
*401 la_oenb[0]
*402 la_oenb[100]
*403 la_oenb[101]
*404 la_oenb[102]
*405 la_oenb[103]
*406 la_oenb[104]
*407 la_oenb[105]
*408 la_oenb[106]
*409 la_oenb[107]
*410 la_oenb[108]
*411 la_oenb[109]
*412 la_oenb[10]
*413 la_oenb[110]
*414 la_oenb[111]
*415 la_oenb[112]
*416 la_oenb[113]
*417 la_oenb[114]
*418 la_oenb[115]
*419 la_oenb[116]
*420 la_oenb[117]
*421 la_oenb[118]
*422 la_oenb[119]
*423 la_oenb[11]
*424 la_oenb[120]
*425 la_oenb[121]
*426 la_oenb[122]
*427 la_oenb[123]
*428 la_oenb[124]
*429 la_oenb[125]
*430 la_oenb[126]
*431 la_oenb[127]
*432 la_oenb[12]
*433 la_oenb[13]
*434 la_oenb[14]
*435 la_oenb[15]
*436 la_oenb[16]
*437 la_oenb[17]
*438 la_oenb[18]
*439 la_oenb[19]
*440 la_oenb[1]
*441 la_oenb[20]
*442 la_oenb[21]
*443 la_oenb[22]
*444 la_oenb[23]
*445 la_oenb[24]
*446 la_oenb[25]
*447 la_oenb[26]
*448 la_oenb[27]
*449 la_oenb[28]
*450 la_oenb[29]
*451 la_oenb[2]
*452 la_oenb[30]
*453 la_oenb[31]
*454 la_oenb[32]
*455 la_oenb[33]
*456 la_oenb[34]
*457 la_oenb[35]
*458 la_oenb[36]
*459 la_oenb[37]
*460 la_oenb[38]
*461 la_oenb[39]
*462 la_oenb[3]
*463 la_oenb[40]
*464 la_oenb[41]
*465 la_oenb[42]
*466 la_oenb[43]
*467 la_oenb[44]
*468 la_oenb[45]
*469 la_oenb[46]
*470 la_oenb[47]
*471 la_oenb[48]
*472 la_oenb[49]
*473 la_oenb[4]
*474 la_oenb[50]
*475 la_oenb[51]
*476 la_oenb[52]
*477 la_oenb[53]
*478 la_oenb[54]
*479 la_oenb[55]
*480 la_oenb[56]
*481 la_oenb[57]
*482 la_oenb[58]
*483 la_oenb[59]
*484 la_oenb[5]
*485 la_oenb[60]
*486 la_oenb[61]
*487 la_oenb[62]
*488 la_oenb[63]
*489 la_oenb[64]
*490 la_oenb[65]
*491 la_oenb[66]
*492 la_oenb[67]
*493 la_oenb[68]
*494 la_oenb[69]
*495 la_oenb[6]
*496 la_oenb[70]
*497 la_oenb[71]
*498 la_oenb[72]
*499 la_oenb[73]
*500 la_oenb[74]
*501 la_oenb[75]
*502 la_oenb[76]
*503 la_oenb[77]
*504 la_oenb[78]
*505 la_oenb[79]
*506 la_oenb[7]
*507 la_oenb[80]
*508 la_oenb[81]
*509 la_oenb[82]
*510 la_oenb[83]
*511 la_oenb[84]
*512 la_oenb[85]
*513 la_oenb[86]
*514 la_oenb[87]
*515 la_oenb[88]
*516 la_oenb[89]
*517 la_oenb[8]
*518 la_oenb[90]
*519 la_oenb[91]
*520 la_oenb[92]
*521 la_oenb[93]
*522 la_oenb[94]
*523 la_oenb[95]
*524 la_oenb[96]
*525 la_oenb[97]
*526 la_oenb[98]
*527 la_oenb[99]
*528 la_oenb[9]
*529 user_clock2
*530 net215
*531 net216
*532 net217
*535 wb_clk_i
*536 wb_rst_i
*537 net218
*538 wbs_adr_i[0]
*539 wbs_adr_i[10]
*540 wbs_adr_i[11]
*541 wbs_adr_i[12]
*542 wbs_adr_i[13]
*543 wbs_adr_i[14]
*544 wbs_adr_i[15]
*545 wbs_adr_i[16]
*546 wbs_adr_i[17]
*547 wbs_adr_i[18]
*548 wbs_adr_i[19]
*549 wbs_adr_i[1]
*550 wbs_adr_i[20]
*551 wbs_adr_i[21]
*552 wbs_adr_i[22]
*553 wbs_adr_i[23]
*554 wbs_adr_i[24]
*555 wbs_adr_i[25]
*556 wbs_adr_i[26]
*557 wbs_adr_i[27]
*558 wbs_adr_i[28]
*559 wbs_adr_i[29]
*560 wbs_adr_i[2]
*561 wbs_adr_i[30]
*562 wbs_adr_i[31]
*563 wbs_adr_i[3]
*564 wbs_adr_i[4]
*565 wbs_adr_i[5]
*566 wbs_adr_i[6]
*567 wbs_adr_i[7]
*568 wbs_adr_i[8]
*569 wbs_adr_i[9]
*570 wbs_cyc_i
*571 wbs_dat_i[0]
*572 wbs_dat_i[10]
*573 wbs_dat_i[11]
*574 wbs_dat_i[12]
*575 wbs_dat_i[13]
*576 wbs_dat_i[14]
*577 wbs_dat_i[15]
*578 wbs_dat_i[16]
*579 wbs_dat_i[17]
*580 wbs_dat_i[18]
*581 wbs_dat_i[19]
*582 wbs_dat_i[1]
*583 wbs_dat_i[20]
*584 wbs_dat_i[21]
*585 wbs_dat_i[22]
*586 wbs_dat_i[23]
*587 wbs_dat_i[24]
*588 wbs_dat_i[25]
*589 wbs_dat_i[26]
*590 wbs_dat_i[27]
*591 wbs_dat_i[28]
*592 wbs_dat_i[29]
*593 wbs_dat_i[2]
*594 wbs_dat_i[30]
*595 wbs_dat_i[31]
*596 wbs_dat_i[3]
*597 wbs_dat_i[4]
*598 wbs_dat_i[5]
*599 wbs_dat_i[6]
*600 wbs_dat_i[7]
*601 wbs_dat_i[8]
*602 wbs_dat_i[9]
*603 net219
*604 net229
*605 net230
*606 net231
*607 net232
*608 net233
*609 net234
*610 net235
*611 net236
*612 net237
*613 net238
*614 net220
*615 net239
*616 net240
*617 net241
*618 net242
*619 net243
*620 net244
*621 net245
*622 net246
*623 net247
*624 net248
*625 net221
*626 net249
*627 net250
*628 net222
*629 net223
*630 net224
*631 net225
*632 net226
*633 net227
*634 net228
*635 wbs_sel_i[0]
*636 wbs_sel_i[1]
*637 wbs_sel_i[2]
*638 wbs_sel_i[3]
*639 wbs_stb_i
*640 wbs_we_i
*641 _000_
*642 _001_
*643 _002_
*644 _003_
*645 _004_
*646 _005_
*647 _006_
*648 _007_
*649 _008_
*650 _009_
*651 _010_
*652 _011_
*653 _012_
*654 _013_
*655 _014_
*656 _015_
*657 _016_
*658 _017_
*659 _018_
*660 _019_
*661 _020_
*662 _021_
*663 _022_
*664 _023_
*665 _024_
*666 _025_
*667 _026_
*668 _027_
*669 _028_
*670 _029_
*671 _030_
*672 _031_
*673 _032_
*674 _033_
*675 _034_
*676 _035_
*677 _036_
*678 _037_
*679 _038_
*680 _039_
*681 _040_
*682 _041_
*683 _042_
*684 _043_
*685 _044_
*686 _045_
*687 _046_
*688 _047_
*689 _048_
*690 _049_
*691 _050_
*692 _051_
*693 _052_
*694 _053_
*695 _054_
*696 _055_
*697 _056_
*698 _057_
*699 _058_
*700 _059_
*701 _060_
*702 _061_
*703 _062_
*704 _063_
*705 _064_
*706 _065_
*707 _066_
*708 _067_
*709 _068_
*710 _069_
*711 _070_
*712 _071_
*713 _072_
*714 _073_
*715 _074_
*716 _075_
*717 _076_
*718 _077_
*719 _078_
*720 _079_
*721 _080_
*722 _081_
*723 _082_
*724 _083_
*725 _084_
*726 _085_
*727 _086_
*728 _087_
*729 _088_
*730 _089_
*731 _090_
*732 _091_
*733 _092_
*734 _093_
*735 _094_
*736 _095_
*737 _096_
*738 _097_
*739 _098_
*740 _099_
*741 _100_
*742 _101_
*743 _102_
*744 _103_
*745 _104_
*746 _105_
*747 _106_
*748 _107_
*749 _108_
*750 _109_
*751 _110_
*752 _111_
*753 _112_
*754 _113_
*755 _114_
*756 _115_
*757 _116_
*758 _117_
*759 _118_
*760 _119_
*761 _120_
*762 _121_
*763 _122_
*764 _123_
*765 _124_
*766 _125_
*767 _126_
*768 _127_
*769 _128_
*770 _129_
*771 _130_
*772 _131_
*773 _132_
*774 _133_
*775 _134_
*776 _135_
*777 _136_
*778 _137_
*779 _138_
*780 _139_
*781 _140_
*782 _141_
*783 _142_
*784 _143_
*785 _144_
*786 _145_
*787 _146_
*788 _147_
*789 _148_
*790 _149_
*791 _150_
*792 _151_
*793 _152_
*794 _153_
*795 _154_
*796 _155_
*797 _156_
*798 _157_
*799 _158_
*800 _159_
*801 _160_
*802 _161_
*803 _162_
*804 _163_
*805 _164_
*806 _165_
*807 _166_
*808 _167_
*809 _168_
*810 _169_
*811 _170_
*812 _171_
*813 _172_
*814 _173_
*815 _174_
*816 _175_
*817 _176_
*818 _177_
*819 _178_
*820 _179_
*821 _180_
*822 _181_
*823 _182_
*824 _183_
*825 _184_
*826 _185_
*827 _186_
*828 _187_
*829 _188_
*830 _189_
*831 _190_
*832 _191_
*833 _192_
*834 _193_
*835 _194_
*836 _195_
*837 _196_
*838 _197_
*839 _198_
*840 _199_
*841 _200_
*842 _201_
*843 _202_
*844 _203_
*845 _204_
*846 _205_
*847 _206_
*848 _207_
*849 _208_
*850 _209_
*851 _210_
*852 _211_
*853 _212_
*854 _213_
*855 _214_
*856 _215_
*857 _216_
*858 _217_
*859 _218_
*860 _219_
*861 _220_
*862 _221_
*863 _222_
*864 _223_
*865 _224_
*866 _225_
*867 _226_
*868 _227_
*869 _228_
*870 _229_
*871 _230_
*872 _231_
*873 _232_
*874 _233_
*875 _234_
*876 _235_
*877 _236_
*878 _237_
*879 _238_
*880 _239_
*881 _240_
*882 _241_
*883 _242_
*884 _243_
*885 _244_
*886 net1
*887 net10
*888 net11
*889 net12
*890 net13
*891 net14
*892 net15
*893 net16
*894 net17
*895 net18
*896 net19
*897 net2
*898 net20
*899 net21
*900 net22
*901 net23
*902 net24
*903 net25
*904 net26
*905 net27
*906 net28
*907 net29
*908 net3
*909 net30
*910 net31
*911 net32
*912 net33
*913 net34
*914 net35
*915 net36
*916 net37
*917 net38
*918 net39
*919 net4
*920 net40
*921 net41
*922 net42
*923 net43
*924 net44
*925 net45
*926 net46
*927 net47
*928 net48
*929 net5
*930 net6
*931 net7
*932 net8
*933 net9
*934 u_my_alu_xor\.ALU_Out1\[0\]
*935 u_my_alu_xor\.ALU_Out1\[1\]
*936 u_my_alu_xor\.ALU_Out1\[2\]
*937 u_my_alu_xor\.ALU_Out1\[3\]
*938 u_my_alu_xor\.ALU_Out1\[4\]
*939 u_my_alu_xor\.ALU_Out1\[5\]
*940 u_my_alu_xor\.ALU_Out1\[6\]
*941 u_my_alu_xor\.ALU_Out1\[7\]
*942 u_my_alu_xor\.ALU_Out2\[0\]
*943 u_my_alu_xor\.ALU_Out2\[1\]
*944 u_my_alu_xor\.ALU_Out2\[2\]
*945 u_my_alu_xor\.ALU_Out2\[3\]
*946 u_my_alu_xor\.ALU_Out2\[4\]
*947 u_my_alu_xor\.ALU_Out2\[5\]
*948 u_my_alu_xor\.ALU_Out2\[6\]
*949 u_my_alu_xor\.ALU_Out2\[7\]
*950 u_my_alu_xor\.CarryOut1
*951 u_my_alu_xor\.CarryOut2
*952 u_my_alu_xor\.x\[0\]
*953 u_my_alu_xor\.x\[1\]
*954 u_my_alu_xor\.x\[2\]
*955 u_my_alu_xor\.x\[3\]
*956 u_my_alu_xor\.x\[4\]
*957 u_my_alu_xor\.x\[5\]
*958 u_my_alu_xor\.x\[6\]
*959 u_my_alu_xor\.x\[7\]
*960 u_my_alu_xor\.y
*961 ANTENNA__256__A
*962 ANTENNA__257__A
*963 ANTENNA__258__A
*964 ANTENNA__259__A
*965 ANTENNA__260__A
*966 ANTENNA__261__A
*967 ANTENNA__262__A
*968 ANTENNA__263__A
*969 ANTENNA__269__A
*970 ANTENNA__270__A
*971 ANTENNA__276__A
*972 ANTENNA__282__A
*973 ANTENNA__288__A
*974 ANTENNA__294__A
*975 ANTENNA__295__A
*976 ANTENNA__296__A
*977 ANTENNA__297__A
*978 ANTENNA__298__A
*979 ANTENNA__299__A
*980 ANTENNA__300__A
*981 ANTENNA__301__A
*982 ANTENNA__302__A
*983 ANTENNA__303__A
*984 ANTENNA__307__A
*985 ANTENNA__307__B
*986 ANTENNA__307__C
*987 ANTENNA__307__D
*988 ANTENNA__308__A
*989 ANTENNA__308__B_N
*990 ANTENNA__310__A1
*991 ANTENNA__313__B1
*992 ANTENNA__314__A
*993 ANTENNA__317__A
*994 ANTENNA__318__A
*995 ANTENNA__319__A
*996 ANTENNA__322__A
*997 ANTENNA__323__A
*998 ANTENNA__323__C
*999 ANTENNA__324__A_N
*1000 ANTENNA__325__B1_N
*1001 ANTENNA__326__B1
*1002 ANTENNA__328__A1
*1003 ANTENNA__329__A
*1004 ANTENNA__330__A
*1005 ANTENNA__331__A
*1006 ANTENNA__332__A
*1007 ANTENNA__333__A
*1008 ANTENNA__335__A
*1009 ANTENNA__336__B1
*1010 ANTENNA__338__A
*1011 ANTENNA__339__A
*1012 ANTENNA__345__A
*1013 ANTENNA__346__A1
*1014 ANTENNA__347__A1
*1015 ANTENNA__352__A
*1016 ANTENNA__353__A
*1017 ANTENNA__358__A
*1018 ANTENNA__359__A2
*1019 ANTENNA__360__A2
*1020 ANTENNA__366__A
*1021 ANTENNA__367__A
*1022 ANTENNA__370__A2
*1023 ANTENNA__371__A2
*1024 ANTENNA__375__A
*1025 ANTENNA__382__A
*1026 ANTENNA__382__B_N
*1027 ANTENNA__384__A
*1028 ANTENNA__385__A
*1029 ANTENNA__385__B
*1030 ANTENNA__386__A2
*1031 ANTENNA__386__A3
*1032 ANTENNA__386__B1
*1033 ANTENNA__387__A1
*1034 ANTENNA__387__A2
*1035 ANTENNA__388__A1
*1036 ANTENNA__388__A2
*1037 ANTENNA__389__A
*1038 ANTENNA__392__A
*1039 ANTENNA__395__A
*1040 ANTENNA__399__A
*1041 ANTENNA__400__A
*1042 ANTENNA__403__A
*1043 ANTENNA__404__B1
*1044 ANTENNA__405__A
*1045 ANTENNA__407__A
*1046 ANTENNA__408__A
*1047 ANTENNA__408__B_N
*1048 ANTENNA__409__A1
*1049 ANTENNA__409__B1
*1050 ANTENNA__410__A
*1051 ANTENNA__410__B
*1052 ANTENNA__411__A
*1053 ANTENNA__411__B
*1054 ANTENNA__411__C
*1055 ANTENNA__412__A1
*1056 ANTENNA__412__A2
*1057 ANTENNA__412__B1
*1058 ANTENNA__414__A
*1059 ANTENNA__418__A2
*1060 ANTENNA__418__B1
*1061 ANTENNA__419__A
*1062 ANTENNA__430__A1
*1063 ANTENNA__430__A2
*1064 ANTENNA__432__A
*1065 ANTENNA__433__A
*1066 ANTENNA__437__A1_N
*1067 ANTENNA__437__B2
*1068 ANTENNA__438__A1
*1069 ANTENNA__439__A1
*1070 ANTENNA__441__A
*1071 ANTENNA__442__A
*1072 ANTENNA__443__A1_N
*1073 ANTENNA__443__A2_N
*1074 ANTENNA__444__A1
*1075 ANTENNA__444__A2
*1076 ANTENNA__445__A1
*1077 ANTENNA__445__A2
*1078 ANTENNA__450__A2
*1079 ANTENNA__451__A2
*1080 ANTENNA__457__A2
*1081 ANTENNA__457__B1
*1082 ANTENNA__459__A2
*1083 ANTENNA__466__A1
*1084 ANTENNA__466__A2
*1085 ANTENNA__467__A2
*1086 ANTENNA__467__A3
*1087 ANTENNA__470__A2
*1088 ANTENNA__471__A2
*1089 ANTENNA__478__A2
*1090 ANTENNA__478__B1
*1091 ANTENNA__479__A2
*1092 ANTENNA__485__A
*1093 ANTENNA__486__A2
*1094 ANTENNA__486__B1
*1095 ANTENNA__487__A2
*1096 ANTENNA__492__A1
*1097 ANTENNA__492__B1
*1098 ANTENNA__493__A1
*1099 ANTENNA__498__A2
*1100 ANTENNA__499__A2
*1101 ANTENNA__499__C1
*1102 ANTENNA__504__B1
*1103 ANTENNA__506__A2
*1104 ANTENNA__506__B1
*1105 ANTENNA__507__A2
*1106 ANTENNA__512__B1
*1107 ANTENNA__516__A
*1108 ANTENNA__516__B
*1109 ANTENNA__521__A2
*1110 ANTENNA__522__C1
*1111 ANTENNA__523__B1
*1112 ANTENNA__524__C1
*1113 ANTENNA_input10_A
*1114 ANTENNA_input11_A
*1115 ANTENNA_input12_A
*1116 ANTENNA_input13_A
*1117 ANTENNA_input14_A
*1118 ANTENNA_input15_A
*1119 ANTENNA_input16_A
*1120 ANTENNA_input17_A
*1121 ANTENNA_input18_A
*1122 ANTENNA_input19_A
*1123 ANTENNA_input1_A
*1124 ANTENNA_input20_A
*1125 ANTENNA_input21_A
*1126 ANTENNA_input22_A
*1127 ANTENNA_input23_A
*1128 ANTENNA_input24_A
*1129 ANTENNA_input25_A
*1130 ANTENNA_input26_A
*1131 ANTENNA_input27_A
*1132 ANTENNA_input28_A
*1133 ANTENNA_input29_A
*1134 ANTENNA_input2_A
*1135 ANTENNA_input30_A
*1136 ANTENNA_input31_A
*1137 ANTENNA_input32_A
*1138 ANTENNA_input33_A
*1139 ANTENNA_input34_A
*1140 ANTENNA_input35_A
*1141 ANTENNA_input36_A
*1142 ANTENNA_input37_A
*1143 ANTENNA_input3_A
*1144 ANTENNA_input4_A
*1145 ANTENNA_input5_A
*1146 ANTENNA_input6_A
*1147 ANTENNA_input7_A
*1148 ANTENNA_input8_A
*1149 ANTENNA_input9_A
*1150 FILLER_0_1003
*1151 FILLER_0_1009
*1152 FILLER_0_101
*1153 FILLER_0_1017
*1154 FILLER_0_1024
*1155 FILLER_0_1031
*1156 FILLER_0_1036
*1157 FILLER_0_1042
*1158 FILLER_0_1054
*1159 FILLER_0_106
*1160 FILLER_0_1062
*1161 FILLER_0_1069
*1162 FILLER_0_1077
*1163 FILLER_0_1084
*1164 FILLER_0_1091
*1165 FILLER_0_1096
*1166 FILLER_0_1101
*1167 FILLER_0_1109
*1168 FILLER_0_111
*1169 FILLER_0_1114
*1170 FILLER_0_1122
*1171 FILLER_0_1129
*1172 FILLER_0_1137
*1173 FILLER_0_1144
*1174 FILLER_0_1151
*1175 FILLER_0_1156
*1176 FILLER_0_1160
*1177 FILLER_0_1168
*1178 FILLER_0_1174
*1179 FILLER_0_1182
*1180 FILLER_0_1189
*1181 FILLER_0_119
*1182 FILLER_0_1196
*1183 FILLER_0_1201
*1184 FILLER_0_1208
*1185 FILLER_0_1214
*1186 FILLER_0_1216
*1187 FILLER_0_1220
*1188 FILLER_0_1228
*1189 FILLER_0_1234
*1190 FILLER_0_124
*1191 FILLER_0_1242
*1192 FILLER_0_1249
*1193 FILLER_0_1256
*1194 FILLER_0_1261
*1195 FILLER_0_1267
*1196 FILLER_0_1279
*1197 FILLER_0_1287
*1198 FILLER_0_1294
*1199 FILLER_0_1302
*1200 FILLER_0_1309
*1201 FILLER_0_1316
*1202 FILLER_0_132
*1203 FILLER_0_1321
*1204 FILLER_0_1326
*1205 FILLER_0_1334
*1206 FILLER_0_1339
*1207 FILLER_0_1347
*1208 FILLER_0_1354
*1209 FILLER_0_1362
*1210 FILLER_0_1369
*1211 FILLER_0_1376
*1212 FILLER_0_1381
*1213 FILLER_0_1385
*1214 FILLER_0_139
*1215 FILLER_0_1393
*1216 FILLER_0_1399
*1217 FILLER_0_14
*1218 FILLER_0_1407
*1219 FILLER_0_1414
*1220 FILLER_0_1421
*1221 FILLER_0_1426
*1222 FILLER_0_1433
*1223 FILLER_0_1439
*1224 FILLER_0_1444
*1225 FILLER_0_1452
*1226 FILLER_0_1459
*1227 FILLER_0_146
*1228 FILLER_0_1467
*1229 FILLER_0_1474
*1230 FILLER_0_1481
*1231 FILLER_0_1486
*1232 FILLER_0_1492
*1233 FILLER_0_1504
*1234 FILLER_0_151
*1235 FILLER_0_1512
*1236 FILLER_0_1519
*1237 FILLER_0_1527
*1238 FILLER_0_1534
*1239 FILLER_0_1541
*1240 FILLER_0_1546
*1241 FILLER_0_1551
*1242 FILLER_0_1559
*1243 FILLER_0_1564
*1244 FILLER_0_1572
*1245 FILLER_0_1579
*1246 FILLER_0_158
*1247 FILLER_0_1587
*1248 FILLER_0_1594
*1249 FILLER_0_16
*1250 FILLER_0_1601
*1251 FILLER_0_1606
*1252 FILLER_0_1610
*1253 FILLER_0_1618
*1254 FILLER_0_1624
*1255 FILLER_0_1632
*1256 FILLER_0_1639
*1257 FILLER_0_164
*1258 FILLER_0_1646
*1259 FILLER_0_1651
*1260 FILLER_0_1658
*1261 FILLER_0_166
*1262 FILLER_0_1664
*1263 FILLER_0_1669
*1264 FILLER_0_1677
*1265 FILLER_0_1684
*1266 FILLER_0_1692
*1267 FILLER_0_1699
*1268 FILLER_0_170
*1269 FILLER_0_1706
*1270 FILLER_0_1711
*1271 FILLER_0_1717
*1272 FILLER_0_1729
*1273 FILLER_0_1737
*1274 FILLER_0_1744
*1275 FILLER_0_1752
*1276 FILLER_0_1759
*1277 FILLER_0_1766
*1278 FILLER_0_1771
*1279 FILLER_0_1776
*1280 FILLER_0_178
*1281 FILLER_0_1784
*1282 FILLER_0_1789
*1283 FILLER_0_1797
*1284 FILLER_0_1804
*1285 FILLER_0_1811
*1286 FILLER_0_1816
*1287 FILLER_0_1823
*1288 FILLER_0_1829
*1289 FILLER_0_1831
*1290 FILLER_0_1835
*1291 FILLER_0_184
*1292 FILLER_0_1843
*1293 FILLER_0_1849
*1294 FILLER_0_1857
*1295 FILLER_0_1864
*1296 FILLER_0_1871
*1297 FILLER_0_1876
*1298 FILLER_0_1882
*1299 FILLER_0_1894
*1300 FILLER_0_1902
*1301 FILLER_0_1909
*1302 FILLER_0_1917
*1303 FILLER_0_192
*1304 FILLER_0_1924
*1305 FILLER_0_1928
*1306 FILLER_0_199
*1307 FILLER_0_20
*1308 FILLER_0_206
*1309 FILLER_0_211
*1310 FILLER_0_217
*1311 FILLER_0_229
*1312 FILLER_0_237
*1313 FILLER_0_24
*1314 FILLER_0_244
*1315 FILLER_0_252
*1316 FILLER_0_259
*1317 FILLER_0_266
*1318 FILLER_0_271
*1319 FILLER_0_277
*1320 FILLER_0_289
*1321 FILLER_0_297
*1322 FILLER_0_304
*1323 FILLER_0_31
*1324 FILLER_0_312
*1325 FILLER_0_319
*1326 FILLER_0_326
*1327 FILLER_0_331
*1328 FILLER_0_336
*1329 FILLER_0_344
*1330 FILLER_0_349
*1331 FILLER_0_357
*1332 FILLER_0_364
*1333 FILLER_0_371
*1334 FILLER_0_376
*1335 FILLER_0_383
*1336 FILLER_0_389
*1337 FILLER_0_391
*1338 FILLER_0_395
*1339 FILLER_0_40
*1340 FILLER_0_403
*1341 FILLER_0_406
*1342 FILLER_0_415
*1343 FILLER_0_419
*1344 FILLER_0_421
*1345 FILLER_0_427
*1346 FILLER_0_439
*1347 FILLER_0_44
*1348 FILLER_0_447
*1349 FILLER_0_454
*1350 FILLER_0_46
*1351 FILLER_0_462
*1352 FILLER_0_469
*1353 FILLER_0_476
*1354 FILLER_0_481
*1355 FILLER_0_486
*1356 FILLER_0_494
*1357 FILLER_0_499
*1358 FILLER_0_507
*1359 FILLER_0_514
*1360 FILLER_0_52
*1361 FILLER_0_521
*1362 FILLER_0_526
*1363 FILLER_0_533
*1364 FILLER_0_539
*1365 FILLER_0_541
*1366 FILLER_0_545
*1367 FILLER_0_553
*1368 FILLER_0_559
*1369 FILLER_0_56
*1370 FILLER_0_567
*1371 FILLER_0_574
*1372 FILLER_0_581
*1373 FILLER_0_586
*1374 FILLER_0_592
*1375 FILLER_0_6
*1376 FILLER_0_604
*1377 FILLER_0_61
*1378 FILLER_0_612
*1379 FILLER_0_619
*1380 FILLER_0_627
*1381 FILLER_0_634
*1382 FILLER_0_641
*1383 FILLER_0_646
*1384 FILLER_0_651
*1385 FILLER_0_659
*1386 FILLER_0_664
*1387 FILLER_0_67
*1388 FILLER_0_672
*1389 FILLER_0_679
*1390 FILLER_0_687
*1391 FILLER_0_694
*1392 FILLER_0_701
*1393 FILLER_0_706
*1394 FILLER_0_71
*1395 FILLER_0_711
*1396 FILLER_0_719
*1397 FILLER_0_724
*1398 FILLER_0_732
*1399 FILLER_0_739
*1400 FILLER_0_746
*1401 FILLER_0_751
*1402 FILLER_0_758
*1403 FILLER_0_76
*1404 FILLER_0_764
*1405 FILLER_0_766
*1406 FILLER_0_770
*1407 FILLER_0_778
*1408 FILLER_0_784
*1409 FILLER_0_792
*1410 FILLER_0_799
*1411 FILLER_0_806
*1412 FILLER_0_811
*1413 FILLER_0_817
*1414 FILLER_0_829
*1415 FILLER_0_837
*1416 FILLER_0_844
*1417 FILLER_0_852
*1418 FILLER_0_859
*1419 FILLER_0_866
*1420 FILLER_0_871
*1421 FILLER_0_876
*1422 FILLER_0_88
*1423 FILLER_0_884
*1424 FILLER_0_889
*1425 FILLER_0_897
*1426 FILLER_0_904
*1427 FILLER_0_912
*1428 FILLER_0_919
*1429 FILLER_0_926
*1430 FILLER_0_931
*1431 FILLER_0_935
*1432 FILLER_0_94
*1433 FILLER_0_943
*1434 FILLER_0_949
*1435 FILLER_0_957
*1436 FILLER_0_964
*1437 FILLER_0_971
*1438 FILLER_0_976
*1439 FILLER_0_983
*1440 FILLER_0_989
*1441 FILLER_0_991
*1442 FILLER_0_995
*1443 FILLER_100_100
*1444 FILLER_100_1000
*1445 FILLER_100_1004
*1446 FILLER_100_1006
*1447 FILLER_100_1018
*1448 FILLER_100_1030
*1449 FILLER_100_1034
*1450 FILLER_100_1036
*1451 FILLER_100_104
*1452 FILLER_100_1048
*1453 FILLER_100_106
*1454 FILLER_100_1060
*1455 FILLER_100_1064
*1456 FILLER_100_1066
*1457 FILLER_100_1078
*1458 FILLER_100_1090
*1459 FILLER_100_1094
*1460 FILLER_100_1096
*1461 FILLER_100_1108
*1462 FILLER_100_1120
*1463 FILLER_100_1124
*1464 FILLER_100_1126
*1465 FILLER_100_1138
*1466 FILLER_100_1150
*1467 FILLER_100_1154
*1468 FILLER_100_1156
*1469 FILLER_100_1168
*1470 FILLER_100_118
*1471 FILLER_100_1180
*1472 FILLER_100_1184
*1473 FILLER_100_1186
*1474 FILLER_100_1198
*1475 FILLER_100_1210
*1476 FILLER_100_1214
*1477 FILLER_100_1216
*1478 FILLER_100_1228
*1479 FILLER_100_1240
*1480 FILLER_100_1244
*1481 FILLER_100_1246
*1482 FILLER_100_1258
*1483 FILLER_100_1270
*1484 FILLER_100_1274
*1485 FILLER_100_1276
*1486 FILLER_100_1288
*1487 FILLER_100_130
*1488 FILLER_100_1300
*1489 FILLER_100_1304
*1490 FILLER_100_1306
*1491 FILLER_100_1318
*1492 FILLER_100_1330
*1493 FILLER_100_1334
*1494 FILLER_100_1336
*1495 FILLER_100_134
*1496 FILLER_100_1348
*1497 FILLER_100_136
*1498 FILLER_100_1360
*1499 FILLER_100_1364
*1500 FILLER_100_1366
*1501 FILLER_100_1378
*1502 FILLER_100_1390
*1503 FILLER_100_1394
*1504 FILLER_100_1396
*1505 FILLER_100_1408
*1506 FILLER_100_1420
*1507 FILLER_100_1424
*1508 FILLER_100_1426
*1509 FILLER_100_1438
*1510 FILLER_100_1450
*1511 FILLER_100_1454
*1512 FILLER_100_1456
*1513 FILLER_100_1468
*1514 FILLER_100_148
*1515 FILLER_100_1480
*1516 FILLER_100_1484
*1517 FILLER_100_1486
*1518 FILLER_100_1498
*1519 FILLER_100_1510
*1520 FILLER_100_1514
*1521 FILLER_100_1516
*1522 FILLER_100_1528
*1523 FILLER_100_1540
*1524 FILLER_100_1544
*1525 FILLER_100_1546
*1526 FILLER_100_1558
*1527 FILLER_100_1570
*1528 FILLER_100_1574
*1529 FILLER_100_1576
*1530 FILLER_100_1588
*1531 FILLER_100_16
*1532 FILLER_100_160
*1533 FILLER_100_1600
*1534 FILLER_100_1604
*1535 FILLER_100_1606
*1536 FILLER_100_1618
*1537 FILLER_100_1630
*1538 FILLER_100_1634
*1539 FILLER_100_1636
*1540 FILLER_100_164
*1541 FILLER_100_1648
*1542 FILLER_100_166
*1543 FILLER_100_1660
*1544 FILLER_100_1664
*1545 FILLER_100_1666
*1546 FILLER_100_1678
*1547 FILLER_100_1690
*1548 FILLER_100_1694
*1549 FILLER_100_1696
*1550 FILLER_100_1708
*1551 FILLER_100_1720
*1552 FILLER_100_1724
*1553 FILLER_100_1726
*1554 FILLER_100_1738
*1555 FILLER_100_1750
*1556 FILLER_100_1754
*1557 FILLER_100_1756
*1558 FILLER_100_1768
*1559 FILLER_100_178
*1560 FILLER_100_1780
*1561 FILLER_100_1784
*1562 FILLER_100_1786
*1563 FILLER_100_1798
*1564 FILLER_100_1810
*1565 FILLER_100_1814
*1566 FILLER_100_1816
*1567 FILLER_100_1828
*1568 FILLER_100_1840
*1569 FILLER_100_1844
*1570 FILLER_100_1846
*1571 FILLER_100_1858
*1572 FILLER_100_1870
*1573 FILLER_100_1874
*1574 FILLER_100_1876
*1575 FILLER_100_1888
*1576 FILLER_100_190
*1577 FILLER_100_1900
*1578 FILLER_100_1904
*1579 FILLER_100_1906
*1580 FILLER_100_1918
*1581 FILLER_100_1926
*1582 FILLER_100_194
*1583 FILLER_100_196
*1584 FILLER_100_208
*1585 FILLER_100_220
*1586 FILLER_100_224
*1587 FILLER_100_226
*1588 FILLER_100_238
*1589 FILLER_100_250
*1590 FILLER_100_254
*1591 FILLER_100_256
*1592 FILLER_100_268
*1593 FILLER_100_28
*1594 FILLER_100_280
*1595 FILLER_100_284
*1596 FILLER_100_286
*1597 FILLER_100_298
*1598 FILLER_100_3
*1599 FILLER_100_310
*1600 FILLER_100_314
*1601 FILLER_100_316
*1602 FILLER_100_328
*1603 FILLER_100_340
*1604 FILLER_100_344
*1605 FILLER_100_346
*1606 FILLER_100_358
*1607 FILLER_100_370
*1608 FILLER_100_374
*1609 FILLER_100_376
*1610 FILLER_100_388
*1611 FILLER_100_40
*1612 FILLER_100_400
*1613 FILLER_100_404
*1614 FILLER_100_406
*1615 FILLER_100_418
*1616 FILLER_100_430
*1617 FILLER_100_434
*1618 FILLER_100_436
*1619 FILLER_100_44
*1620 FILLER_100_448
*1621 FILLER_100_46
*1622 FILLER_100_460
*1623 FILLER_100_464
*1624 FILLER_100_466
*1625 FILLER_100_478
*1626 FILLER_100_490
*1627 FILLER_100_494
*1628 FILLER_100_496
*1629 FILLER_100_508
*1630 FILLER_100_520
*1631 FILLER_100_524
*1632 FILLER_100_526
*1633 FILLER_100_538
*1634 FILLER_100_550
*1635 FILLER_100_554
*1636 FILLER_100_556
*1637 FILLER_100_568
*1638 FILLER_100_58
*1639 FILLER_100_580
*1640 FILLER_100_584
*1641 FILLER_100_586
*1642 FILLER_100_598
*1643 FILLER_100_610
*1644 FILLER_100_614
*1645 FILLER_100_616
*1646 FILLER_100_628
*1647 FILLER_100_640
*1648 FILLER_100_644
*1649 FILLER_100_646
*1650 FILLER_100_658
*1651 FILLER_100_670
*1652 FILLER_100_674
*1653 FILLER_100_676
*1654 FILLER_100_688
*1655 FILLER_100_70
*1656 FILLER_100_700
*1657 FILLER_100_704
*1658 FILLER_100_706
*1659 FILLER_100_718
*1660 FILLER_100_730
*1661 FILLER_100_734
*1662 FILLER_100_736
*1663 FILLER_100_74
*1664 FILLER_100_748
*1665 FILLER_100_76
*1666 FILLER_100_760
*1667 FILLER_100_764
*1668 FILLER_100_766
*1669 FILLER_100_778
*1670 FILLER_100_790
*1671 FILLER_100_794
*1672 FILLER_100_796
*1673 FILLER_100_808
*1674 FILLER_100_820
*1675 FILLER_100_824
*1676 FILLER_100_826
*1677 FILLER_100_838
*1678 FILLER_100_850
*1679 FILLER_100_854
*1680 FILLER_100_856
*1681 FILLER_100_868
*1682 FILLER_100_88
*1683 FILLER_100_880
*1684 FILLER_100_884
*1685 FILLER_100_886
*1686 FILLER_100_898
*1687 FILLER_100_910
*1688 FILLER_100_914
*1689 FILLER_100_916
*1690 FILLER_100_928
*1691 FILLER_100_940
*1692 FILLER_100_944
*1693 FILLER_100_946
*1694 FILLER_100_958
*1695 FILLER_100_970
*1696 FILLER_100_974
*1697 FILLER_100_976
*1698 FILLER_100_988
*1699 FILLER_101_1003
*1700 FILLER_101_1015
*1701 FILLER_101_1019
*1702 FILLER_101_1021
*1703 FILLER_101_103