*SPEF "ieee 1481-1999"
*DESIGN "macro_13"
*DATE "11:11:11 Fri 11 11, 1111"
*VENDOR "OpenRCX"
*PROGRAM "Parallel Extraction"
*VERSION "1.0"
*DESIGN_FLOW "NAME_SCOPE LOCAL" "PIN_CAP NONE"
*DIVIDER /
*DELIMITER :
*BUS_DELIMITER []
*T_UNIT 1 NS
*C_UNIT 1 PF
*R_UNIT 1 OHM
*L_UNIT 1 HENRY

*NAME_MAP
*1 active
*2 analog_io[0]
*3 analog_io[10]
*4 analog_io[11]
*5 analog_io[12]
*6 analog_io[13]
*7 analog_io[14]
*8 analog_io[15]
*9 analog_io[16]
*10 analog_io[17]
*11 analog_io[18]
*12 analog_io[19]
*13 analog_io[1]
*14 analog_io[20]
*15 analog_io[21]
*16 analog_io[22]
*17 analog_io[23]
*18 analog_io[24]
*19 analog_io[25]
*20 analog_io[26]
*21 analog_io[27]
*22 analog_io[28]
*23 analog_io[2]
*24 analog_io[3]
*25 analog_io[4]
*26 analog_io[5]
*27 analog_io[6]
*28 analog_io[7]
*29 analog_io[8]
*30 analog_io[9]
*31 io_in[0]
*32 io_in[10]
*33 io_in[11]
*34 io_in[12]
*35 io_in[13]
*36 io_in[14]
*37 io_in[15]
*38 io_in[16]
*39 io_in[17]
*40 io_in[18]
*41 io_in[19]
*42 io_in[1]
*43 io_in[20]
*44 io_in[21]
*45 io_in[22]
*46 io_in[23]
*47 io_in[24]
*48 io_in[25]
*49 io_in[26]
*50 io_in[27]
*51 io_in[28]
*52 io_in[29]
*53 io_in[2]
*54 io_in[30]
*55 io_in[31]
*56 io_in[32]
*57 io_in[33]
*58 io_in[34]
*59 io_in[35]
*60 io_in[36]
*61 io_in[37]
*62 io_in[3]
*63 io_in[4]
*64 io_in[5]
*65 io_in[6]
*66 io_in[7]
*67 io_in[8]
*68 io_in[9]
*69 net234
*70 net244
*71 net245
*72 net246
*73 net247
*74 net248
*75 net249
*76 net250
*77 net251
*78 net252
*79 net253
*80 net235
*81 net254
*82 net255
*83 net256
*84 net257
*85 net258
*86 net259
*87 net260
*88 net261
*89 net37
*90 net38
*91 net236
*92 net39
*93 net40
*94 net41
*95 net42
*96 net43
*97 net44
*98 net45
*99 net46
*100 net237
*101 net238
*102 net239
*103 net240
*104 net241
*105 net242
*106 net243
*107 io_out[0]
*108 io_out[10]
*109 io_out[11]
*110 io_out[12]
*111 io_out[13]
*112 io_out[14]
*113 io_out[15]
*114 io_out[16]
*115 io_out[17]
*116 net50
*117 net51
*118 net47
*119 net52
*120 net53
*121 net54
*122 net55
*123 net56
*124 net57
*125 net58
*126 net59
*127 net60
*128 net61
*129 net48
*130 net62
*131 net63
*132 net64
*133 net65
*134 net66
*135 net67
*136 net68
*137 net69
*138 net49
*139 io_out[4]
*140 io_out[5]
*141 io_out[6]
*142 io_out[7]
*143 io_out[8]
*144 io_out[9]
*145 la_data_in[0]
*146 la_data_in[100]
*147 la_data_in[101]
*148 la_data_in[102]
*149 la_data_in[103]
*150 la_data_in[104]
*151 la_data_in[105]
*152 la_data_in[106]
*153 la_data_in[107]
*154 la_data_in[108]
*155 la_data_in[109]
*156 la_data_in[10]
*157 la_data_in[110]
*158 la_data_in[111]
*159 la_data_in[112]
*160 la_data_in[113]
*161 la_data_in[114]
*162 la_data_in[115]
*163 la_data_in[116]
*164 la_data_in[117]
*165 la_data_in[118]
*166 la_data_in[119]
*167 la_data_in[11]
*168 la_data_in[120]
*169 la_data_in[121]
*170 la_data_in[122]
*171 la_data_in[123]
*172 la_data_in[124]
*173 la_data_in[125]
*174 la_data_in[126]
*175 la_data_in[127]
*176 la_data_in[12]
*177 la_data_in[13]
*178 la_data_in[14]
*179 la_data_in[15]
*180 la_data_in[16]
*181 la_data_in[17]
*182 la_data_in[18]
*183 la_data_in[19]
*184 la_data_in[1]
*185 la_data_in[20]
*186 la_data_in[21]
*187 la_data_in[22]
*188 la_data_in[23]
*189 la_data_in[24]
*190 la_data_in[25]
*191 la_data_in[26]
*192 la_data_in[27]
*193 la_data_in[28]
*194 la_data_in[29]
*195 la_data_in[2]
*196 la_data_in[30]
*197 la_data_in[31]
*198 la_data_in[32]
*199 la_data_in[33]
*200 la_data_in[34]
*201 la_data_in[35]
*202 la_data_in[36]
*203 la_data_in[37]
*204 la_data_in[38]
*205 la_data_in[39]
*206 la_data_in[3]
*207 la_data_in[40]
*208 la_data_in[41]
*209 la_data_in[42]
*210 la_data_in[43]
*211 la_data_in[44]
*212 la_data_in[45]
*213 la_data_in[46]
*214 la_data_in[47]
*215 la_data_in[48]
*216 la_data_in[49]
*217 la_data_in[4]
*218 la_data_in[50]
*219 la_data_in[51]
*220 la_data_in[52]
*221 la_data_in[53]
*222 la_data_in[54]
*223 la_data_in[55]
*224 la_data_in[56]
*225 la_data_in[57]
*226 la_data_in[58]
*227 la_data_in[59]
*228 la_data_in[5]
*229 la_data_in[60]
*230 la_data_in[61]
*231 la_data_in[62]
*232 la_data_in[63]
*233 la_data_in[64]
*234 la_data_in[65]
*235 la_data_in[66]
*236 la_data_in[67]
*237 la_data_in[68]
*238 la_data_in[69]
*239 la_data_in[6]
*240 la_data_in[70]
*241 la_data_in[71]
*242 la_data_in[72]
*243 la_data_in[73]
*244 la_data_in[74]
*245 la_data_in[75]
*246 la_data_in[76]
*247 la_data_in[77]
*248 la_data_in[78]
*249 la_data_in[79]
*250 la_data_in[7]
*251 la_data_in[80]
*252 la_data_in[81]
*253 la_data_in[82]
*254 la_data_in[83]
*255 la_data_in[84]
*256 la_data_in[85]
*257 la_data_in[86]
*258 la_data_in[87]
*259 la_data_in[88]
*260 la_data_in[89]
*261 la_data_in[8]
*262 la_data_in[90]
*263 la_data_in[91]
*264 la_data_in[92]
*265 la_data_in[93]
*266 la_data_in[94]
*267 la_data_in[95]
*268 la_data_in[96]
*269 la_data_in[97]
*270 la_data_in[98]
*271 la_data_in[99]
*272 la_data_in[9]
*273 net70
*274 net138
*275 net139
*276 net140
*277 net141
*278 net142
*279 net143
*280 net144
*281 net145
*282 net146
*283 net147
*284 net80
*285 net148
*286 net149
*287 net150
*288 net151
*289 net152
*290 net153
*291 net154
*292 net155
*293 net156
*294 net157
*295 net81
*296 net158
*297 net159
*298 net160
*299 net161
*300 net162
*301 net163
*302 net164
*303 net165
*304 net82
*305 net83
*306 net84
*307 net85
*308 net86
*309 net87
*310 net88
*311 net89
*312 net71
*313 net90
*314 net91
*315 net92
*316 net93
*317 net94
*318 net95
*319 net96
*320 net97
*321 net98
*322 net99
*323 net72
*324 net100
*325 net101
*326 la_data_out[32]
*327 la_data_out[33]
*328 la_data_out[34]
*329 la_data_out[35]
*330 la_data_out[36]
*331 la_data_out[37]
*332 la_data_out[38]
*333 la_data_out[39]
*334 net73
*335 la_data_out[40]
*336 la_data_out[41]
*337 la_data_out[42]
*338 la_data_out[43]
*339 la_data_out[44]
*340 la_data_out[45]
*341 la_data_out[46]
*342 la_data_out[47]
*343 la_data_out[48]
*344 la_data_out[49]
*345 net74
*346 la_data_out[50]
*347 la_data_out[51]
*348 la_data_out[52]
*349 la_data_out[53]
*350 la_data_out[54]
*351 la_data_out[55]
*352 la_data_out[56]
*353 la_data_out[57]
*354 la_data_out[58]
*355 la_data_out[59]
*356 net75
*357 la_data_out[60]
*358 la_data_out[61]
*359 la_data_out[62]
*360 la_data_out[63]
*361 net102
*362 net103
*363 net104
*364 net105
*365 net106
*366 net107
*367 net76
*368 net108
*369 net109
*370 net110
*371 net111
*372 net112
*373 net113
*374 net114
*375 net115
*376 net116
*377 net117
*378 net77
*379 net118
*380 net119
*381 net120
*382 net121
*383 net122
*384 net123
*385 net124
*386 net125
*387 net126
*388 net127
*389 net78
*390 net128
*391 net129
*392 net130
*393 net131
*394 net132
*395 net133
*396 net134
*397 net135
*398 net136
*399 net137
*400 net79
*401 la_oenb[0]
*402 la_oenb[100]
*403 la_oenb[101]
*404 la_oenb[102]
*405 la_oenb[103]
*406 la_oenb[104]
*407 la_oenb[105]
*408 la_oenb[106]
*409 la_oenb[107]
*410 la_oenb[108]
*411 la_oenb[109]
*412 la_oenb[10]
*413 la_oenb[110]
*414 la_oenb[111]
*415 la_oenb[112]
*416 la_oenb[113]
*417 la_oenb[114]
*418 la_oenb[115]
*419 la_oenb[116]
*420 la_oenb[117]
*421 la_oenb[118]
*422 la_oenb[119]
*423 la_oenb[11]
*424 la_oenb[120]
*425 la_oenb[121]
*426 la_oenb[122]
*427 la_oenb[123]
*428 la_oenb[124]
*429 la_oenb[125]
*430 la_oenb[126]
*431 la_oenb[127]
*432 la_oenb[12]
*433 la_oenb[13]
*434 la_oenb[14]
*435 la_oenb[15]
*436 la_oenb[16]
*437 la_oenb[17]
*438 la_oenb[18]
*439 la_oenb[19]
*440 la_oenb[1]
*441 la_oenb[20]
*442 la_oenb[21]
*443 la_oenb[22]
*444 la_oenb[23]
*445 la_oenb[24]
*446 la_oenb[25]
*447 la_oenb[26]
*448 la_oenb[27]
*449 la_oenb[28]
*450 la_oenb[29]
*451 la_oenb[2]
*452 la_oenb[30]
*453 la_oenb[31]
*454 la_oenb[32]
*455 la_oenb[33]
*456 la_oenb[34]
*457 la_oenb[35]
*458 la_oenb[36]
*459 la_oenb[37]
*460 la_oenb[38]
*461 la_oenb[39]
*462 la_oenb[3]
*463 la_oenb[40]
*464 la_oenb[41]
*465 la_oenb[42]
*466 la_oenb[43]
*467 la_oenb[44]
*468 la_oenb[45]
*469 la_oenb[46]
*470 la_oenb[47]
*471 la_oenb[48]
*472 la_oenb[49]
*473 la_oenb[4]
*474 la_oenb[50]
*475 la_oenb[51]
*476 la_oenb[52]
*477 la_oenb[53]
*478 la_oenb[54]
*479 la_oenb[55]
*480 la_oenb[56]
*481 la_oenb[57]
*482 la_oenb[58]
*483 la_oenb[59]
*484 la_oenb[5]
*485 la_oenb[60]
*486 la_oenb[61]
*487 la_oenb[62]
*488 la_oenb[63]
*489 la_oenb[64]
*490 la_oenb[65]
*491 la_oenb[66]
*492 la_oenb[67]
*493 la_oenb[68]
*494 la_oenb[69]
*495 la_oenb[6]
*496 la_oenb[70]
*497 la_oenb[71]
*498 la_oenb[72]
*499 la_oenb[73]
*500 la_oenb[74]
*501 la_oenb[75]
*502 la_oenb[76]
*503 la_oenb[77]
*504 la_oenb[78]
*505 la_oenb[79]
*506 la_oenb[7]
*507 la_oenb[80]
*508 la_oenb[81]
*509 la_oenb[82]
*510 la_oenb[83]
*511 la_oenb[84]
*512 la_oenb[85]
*513 la_oenb[86]
*514 la_oenb[87]
*515 la_oenb[88]
*516 la_oenb[89]
*517 la_oenb[8]
*518 la_oenb[90]
*519 la_oenb[91]
*520 la_oenb[92]
*521 la_oenb[93]
*522 la_oenb[94]
*523 la_oenb[95]
*524 la_oenb[96]
*525 la_oenb[97]
*526 la_oenb[98]
*527 la_oenb[99]
*528 la_oenb[9]
*529 user_clock2
*530 net166
*531 net167
*532 net168
*535 wb_clk_i
*536 wb_rst_i
*537 net169
*538 wbs_adr_i[0]
*539 wbs_adr_i[10]
*540 wbs_adr_i[11]
*541 wbs_adr_i[12]
*542 wbs_adr_i[13]
*543 wbs_adr_i[14]
*544 wbs_adr_i[15]
*545 wbs_adr_i[16]
*546 wbs_adr_i[17]
*547 wbs_adr_i[18]
*548 wbs_adr_i[19]
*549 wbs_adr_i[1]
*550 wbs_adr_i[20]
*551 wbs_adr_i[21]
*552 wbs_adr_i[22]
*553 wbs_adr_i[23]
*554 wbs_adr_i[24]
*555 wbs_adr_i[25]
*556 wbs_adr_i[26]
*557 wbs_adr_i[27]
*558 wbs_adr_i[28]
*559 wbs_adr_i[29]
*560 wbs_adr_i[2]
*561 wbs_adr_i[30]
*562 wbs_adr_i[31]
*563 wbs_adr_i[3]
*564 wbs_adr_i[4]
*565 wbs_adr_i[5]
*566 wbs_adr_i[6]
*567 wbs_adr_i[7]
*568 wbs_adr_i[8]
*569 wbs_adr_i[9]
*570 wbs_cyc_i
*571 wbs_dat_i[0]
*572 wbs_dat_i[10]
*573 wbs_dat_i[11]
*574 wbs_dat_i[12]
*575 wbs_dat_i[13]
*576 wbs_dat_i[14]
*577 wbs_dat_i[15]
*578 wbs_dat_i[16]
*579 wbs_dat_i[17]
*580 wbs_dat_i[18]
*581 wbs_dat_i[19]
*582 wbs_dat_i[1]
*583 wbs_dat_i[20]
*584 wbs_dat_i[21]
*585 wbs_dat_i[22]
*586 wbs_dat_i[23]
*587 wbs_dat_i[24]
*588 wbs_dat_i[25]
*589 wbs_dat_i[26]
*590 wbs_dat_i[27]
*591 wbs_dat_i[28]
*592 wbs_dat_i[29]
*593 wbs_dat_i[2]
*594 wbs_dat_i[30]
*595 wbs_dat_i[31]
*596 wbs_dat_i[3]
*597 wbs_dat_i[4]
*598 wbs_dat_i[5]
*599 wbs_dat_i[6]
*600 wbs_dat_i[7]
*601 wbs_dat_i[8]
*602 wbs_dat_i[9]
*603 net170
*604 net180
*605 net181
*606 net182
*607 net183
*608 net184
*609 net185
*610 net186
*611 net187
*612 net188
*613 net189
*614 net171
*615 net190
*616 net191
*617 net192
*618 net193
*619 net194
*620 net195
*621 net196
*622 net197
*623 net198
*624 net199
*625 net172
*626 net200
*627 net201
*628 net173
*629 net174
*630 net175
*631 net176
*632 net177
*633 net178
*634 net179
*635 wbs_sel_i[0]
*636 wbs_sel_i[1]
*637 wbs_sel_i[2]
*638 wbs_sel_i[3]
*639 wbs_stb_i
*640 wbs_we_i
*641 _000_
*642 _001_
*643 _002_
*644 _003_
*645 _004_
*646 _005_
*647 _006_
*648 _007_
*649 _008_
*650 _009_
*651 _010_
*652 _011_
*653 _012_
*654 _013_
*655 _014_
*656 _015_
*657 _016_
*658 _017_
*659 _018_
*660 _019_
*661 _020_
*662 _021_
*663 _022_
*664 _023_
*665 _024_
*666 _025_
*667 _026_
*668 _027_
*669 _028_
*670 _029_
*671 _030_
*672 _031_
*673 _032_
*674 _033_
*675 _034_
*676 _035_
*677 _036_
*678 _037_
*679 _038_
*680 _039_
*681 _040_
*682 _041_
*683 _042_
*684 _043_
*685 _044_
*686 _045_
*687 _046_
*688 _047_
*689 _048_
*690 _049_
*691 _050_
*692 _051_
*693 _052_
*694 _053_
*695 _054_
*696 _055_
*697 _056_
*698 _057_
*699 _058_
*700 _059_
*701 _060_
*702 _061_
*703 _062_
*704 _063_
*705 _064_
*706 _065_
*707 _066_
*708 _067_
*709 _068_
*710 _069_
*711 _070_
*712 _071_
*713 _072_
*714 _073_
*715 _074_
*716 _075_
*717 _076_
*718 _077_
*719 _078_
*720 _079_
*721 _080_
*722 _081_
*723 _082_
*724 _083_
*725 _084_
*726 _085_
*727 _086_
*728 _087_
*729 _088_
*730 _089_
*731 _090_
*732 _091_
*733 _092_
*734 _093_
*735 _094_
*736 _095_
*737 _096_
*738 _097_
*739 _098_
*740 _099_
*741 _100_
*742 _101_
*743 _102_
*744 _103_
*745 _104_
*746 _105_
*747 _106_
*748 _107_
*749 _108_
*750 _109_
*751 _110_
*752 _111_
*753 _112_
*754 _113_
*755 _114_
*756 _115_
*757 _116_
*758 _117_
*759 _118_
*760 _119_
*761 _120_
*762 _121_
*763 _122_
*764 _123_
*765 _124_
*766 _125_
*767 _126_
*768 _127_
*769 _128_
*770 _129_
*771 _130_
*772 _131_
*773 _132_
*774 _133_
*775 _134_
*776 _135_
*777 _136_
*778 _137_
*779 net1
*780 net10
*781 net11
*782 net12
*783 net13
*784 net14
*785 net15
*786 net16
*787 net17
*788 net18
*789 net19
*790 net2
*791 net20
*792 net202
*793 net203
*794 net204
*795 net205
*796 net206
*797 net207
*798 net208
*799 net209
*800 net21
*801 net210
*802 net211
*803 net212
*804 net213
*805 net214
*806 net215
*807 net216
*808 net217
*809 net218
*810 net219
*811 net22
*812 net220
*813 net221
*814 net222
*815 net223
*816 net224
*817 net225
*818 net226
*819 net227
*820 net228
*821 net229
*822 net23
*823 net230
*824 net231
*825 net232
*826 net233
*827 net24
*828 net25
*829 net26
*830 net27
*831 net28
*832 net29
*833 net3
*834 net30
*835 net31
*836 net32
*837 net33
*838 net34
*839 net35
*840 net36
*841 net4
*842 net5
*843 net6
*844 net7
*845 net8
*846 net9
*847 ANTENNA__170__A
*848 ANTENNA__171__A
*849 ANTENNA__172__A
*850 ANTENNA__197__A
*851 ANTENNA__203__A
*852 ANTENNA__211__A_N
*853 ANTENNA__211__B
*854 ANTENNA__230__A
*855 ANTENNA__234__B
*856 ANTENNA__259__A
*857 ANTENNA__260__B2
*858 ANTENNA__264__B2
*859 ANTENNA__267__A
*860 ANTENNA__270__A
*861 ANTENNA__275__A
*862 ANTENNA__276__A2
*863 ANTENNA__281__A
*864 ANTENNA__282__A2
*865 ANTENNA__294__B1
*866 ANTENNA__295__A1
*867 ANTENNA__321__C1
*868 ANTENNA_input10_A
*869 ANTENNA_input11_A
*870 ANTENNA_input12_A
*871 ANTENNA_input13_A
*872 ANTENNA_input14_A
*873 ANTENNA_input15_A
*874 ANTENNA_input16_A
*875 ANTENNA_input17_A
*876 ANTENNA_input18_A
*877 ANTENNA_input19_A
*878 ANTENNA_input1_A
*879 ANTENNA_input20_A
*880 ANTENNA_input21_A
*881 ANTENNA_input2_A
*882 ANTENNA_input3_A
*883 ANTENNA_input4_A
*884 ANTENNA_input5_A
*885 ANTENNA_input6_A
*886 ANTENNA_input7_A
*887 ANTENNA_input8_A
*888 ANTENNA_input9_A
*889 FILLER_0_103
*890 FILLER_0_108
*891 FILLER_0_116
*892 FILLER_0_123
*893 FILLER_0_13
*894 FILLER_0_130
*895 FILLER_0_138
*896 FILLER_0_144
*897 FILLER_0_151
*898 FILLER_0_158
*899 FILLER_0_166
*900 FILLER_0_169
*901 FILLER_0_178
*902 FILLER_0_185
*903 FILLER_0_192
*904 FILLER_0_197
*905 FILLER_0_20
*906 FILLER_0_220
*907 FILLER_0_246
*908 FILLER_0_274
*909 FILLER_0_302
*910 FILLER_0_32
*911 FILLER_0_330
*912 FILLER_0_358
*913 FILLER_0_386
*914 FILLER_0_39
*915 FILLER_0_396
*916 FILLER_0_403
*917 FILLER_0_410
*918 FILLER_0_418
*919 FILLER_0_424
*920 FILLER_0_431
*921 FILLER_0_438
*922 FILLER_0_446
*923 FILLER_0_452
*924 FILLER_0_459
*925 FILLER_0_46
*926 FILLER_0_466
*927 FILLER_0_474
*928 FILLER_0_480
*929 FILLER_0_487
*930 FILLER_0_494
*931 FILLER_0_502
*932 FILLER_0_508
*933 FILLER_0_54
*934 FILLER_0_6
*935 FILLER_0_60
*936 FILLER_0_67
*937 FILLER_0_74
*938 FILLER_0_82
*939 FILLER_0_88
*940 FILLER_0_95
*941 FILLER_10_109
*942 FILLER_10_121
*943 FILLER_10_133
*944 FILLER_10_139
*945 FILLER_10_141
*946 FILLER_10_15
*947 FILLER_10_153
*948 FILLER_10_165
*949 FILLER_10_177
*950 FILLER_10_189
*951 FILLER_10_195
*952 FILLER_10_197
*953 FILLER_10_209
*954 FILLER_10_221
*955 FILLER_10_233
*956 FILLER_10_245
*957 FILLER_10_251
*958 FILLER_10_253
*959 FILLER_10_264
*960 FILLER_10_27
*961 FILLER_10_271
*962 FILLER_10_278
*963 FILLER_10_287
*964 FILLER_10_29
*965 FILLER_10_299
*966 FILLER_10_3
*967 FILLER_10_307
*968 FILLER_10_309
*969 FILLER_10_321
*970 FILLER_10_333
*971 FILLER_10_345
*972 FILLER_10_357
*973 FILLER_10_363
*974 FILLER_10_365
*975 FILLER_10_377
*976 FILLER_10_389
*977 FILLER_10_401
*978 FILLER_10_41
*979 FILLER_10_413
*980 FILLER_10_419
*981 FILLER_10_421
*982 FILLER_10_433
*983 FILLER_10_445
*984 FILLER_10_457
*985 FILLER_10_469
*986 FILLER_10_475
*987 FILLER_10_477
*988 FILLER_10_489
*989 FILLER_10_501
*990 FILLER_10_513
*991 FILLER_10_53
*992 FILLER_10_65
*993 FILLER_10_77
*994 FILLER_10_83
*995 FILLER_10_85
*996 FILLER_10_97
*997 FILLER_11_105
*998 FILLER_11_111
*999 FILLER_11_113
*1000 FILLER_11_125
*1001 FILLER_11_137
*1002 FILLER_11_149
*1003 FILLER_11_15
*1004 FILLER_11_161
*1005 FILLER_11_167
*1006 FILLER_11_169
*1007 FILLER_11_181
*1008 FILLER_11_193
*1009 FILLER_11_205
*1010 FILLER_11_217
*1011 FILLER_11_223
*1012 FILLER_11_225
*1013 FILLER_11_237
*1014 FILLER_11_249
*1015 FILLER_11_261
*1016 FILLER_11_27
*1017 FILLER_11_273
*1018 FILLER_11_279
*1019 FILLER_11_281
*1020 FILLER_11_293
*1021 FILLER_11_3
*1022 FILLER_11_305
*1023 FILLER_11_317
*1024 FILLER_11_329
*1025 FILLER_11_335
*1026 FILLER_11_337
*1027 FILLER_11_349
*1028 FILLER_11_361
*1029 FILLER_11_373
*1030 FILLER_11_385
*1031 FILLER_11_39
*1032 FILLER_11_391
*1033 FILLER_11_393
*1034 FILLER_11_405
*1035 FILLER_11_417
*1036 FILLER_11_429
*1037 FILLER_11_441
*1038 FILLER_11_447
*1039 FILLER_11_449
*1040 FILLER_11_461
*1041 FILLER_11_473
*1042 FILLER_11_485
*1043 FILLER_11_497
*1044 FILLER_11_503
*1045 FILLER_11_505
*1046 FILLER_11_51
*1047 FILLER_11_513
*1048 FILLER_11_55
*1049 FILLER_11_57
*1050 FILLER_11_69
*1051 FILLER_11_81
*1052 FILLER_11_93
*1053 FILLER_12_109
*1054 FILLER_12_121
*1055 FILLER_12_133
*1056 FILLER_12_139
*1057 FILLER_12_141
*1058 FILLER_12_15
*1059 FILLER_12_153
*1060 FILLER_12_165
*1061 FILLER_12_177
*1062 FILLER_12_189
*1063 FILLER_12_195
*1064 FILLER_12_197
*1065 FILLER_12_209
*1066 FILLER_12_221
*1067 FILLER_12_233
*1068 FILLER_12_245
*1069 FILLER_12_251
*1070 FILLER_12_253
*1071 FILLER_12_265
*1072 FILLER_12_27
*1073 FILLER_12_277
*1074 FILLER_12_289
*1075 FILLER_12_29
*1076 FILLER_12_3
*1077 FILLER_12_301
*1078 FILLER_12_307
*1079 FILLER_12_309
*1080 FILLER_12_321
*1081 FILLER_12_333
*1082 FILLER_12_345
*1083 FILLER_12_357
*1084 FILLER_12_363
*1085 FILLER_12_365
*1086 FILLER_12_377
*1087 FILLER_12_389
*1088 FILLER_12_401
*1089 FILLER_12_41
*1090 FILLER_12_413
*1091 FILLER_12_419
*1092 FILLER_12_421
*1093 FILLER_12_433
*1094 FILLER_12_445
*1095 FILLER_12_457
*1096 FILLER_12_469
*1097 FILLER_12_475
*1098 FILLER_12_477
*1099 FILLER_12_489
*1100 FILLER_12_501
*1101 FILLER_12_513
*1102 FILLER_12_53
*1103 FILLER_12_65
*1104 FILLER_12_77
*1105 FILLER_12_83
*1106 FILLER_12_85
*1107 FILLER_12_97
*1108 FILLER_13_105
*1109 FILLER_13_111
*1110 FILLER_13_113
*1111 FILLER_13_125
*1112 FILLER_13_137
*1113 FILLER_13_149
*1114 FILLER_13_15
*1115 FILLER_13_161
*1116 FILLER_13_167
*1117 FILLER_13_169
*1118 FILLER_13_181
*1119 FILLER_13_193
*1120 FILLER_13_205
*1121 FILLER_13_217
*1122 FILLER_13_223
*1123 FILLER_13_225
*1124 FILLER_13_237
*1125 FILLER_13_249
*1126 FILLER_13_261
*1127 FILLER_13_27
*1128 FILLER_13_273
*1129 FILLER_13_279
*1130 FILLER_13_281
*1131 FILLER_13_293
*1132 FILLER_13_3
*1133 FILLER_13_305
*1134 FILLER_13_317
*1135 FILLER_13_329
*1136 FILLER_13_335
*1137 FILLER_13_337
*1138 FILLER_13_349
*1139 FILLER_13_361
*1140 FILLER_13_373
*1141 FILLER_13_385
*1142 FILLER_13_39
*1143 FILLER_13_391
*1144 FILLER_13_393
*1145 FILLER_13_405
*1146 FILLER_13_417
*1147 FILLER_13_429
*1148 FILLER_13_441
*1149 FILLER_13_447
*1150 FILLER_13_449
*1151 FILLER_13_461
*1152 FILLER_13_473
*1153 FILLER_13_485
*1154 FILLER_13_497
*1155 FILLER_13_503
*1156 FILLER_13_505
*1157 FILLER_13_51
*1158 FILLER_13_513
*1159 FILLER_13_55
*1160 FILLER_13_57
*1161 FILLER_13_69
*1162 FILLER_13_81
*1163 FILLER_13_93
*1164 FILLER_14_109
*1165 FILLER_14_121
*1166 FILLER_14_133
*1167 FILLER_14_139
*1168 FILLER_14_141
*1169 FILLER_14_15
*1170 FILLER_14_153
*1171 FILLER_14_165
*1172 FILLER_14_177
*1173 FILLER_14_189
*1174 FILLER_14_195
*1175 FILLER_14_197
*1176 FILLER_14_209
*1177 FILLER_14_221
*1178 FILLER_14_233
*1179 FILLER_14_245
*1180 FILLER_14_251
*1181 FILLER_14_253
*1182 FILLER_14_265
*1183 FILLER_14_27
*1184 FILLER_14_277
*1185 FILLER_14_289
*1186 FILLER_14_29
*1187 FILLER_14_3
*1188 FILLER_14_301
*1189 FILLER_14_307
*1190 FILLER_14_309
*1191 FILLER_14_321
*1192 FILLER_14_333
*1193 FILLER_14_345
*1194 FILLER_14_357
*1195 FILLER_14_363
*1196 FILLER_14_365
*1197 FILLER_14_377
*1198 FILLER_14_389
*1199 FILLER_14_401
*1200 FILLER_14_41
*1201 FILLER_14_413
*1202 FILLER_14_419
*1203 FILLER_14_421
*1204 FILLER_14_433
*1205 FILLER_14_445
*1206 FILLER_14_457
*1207 FILLER_14_469
*1208 FILLER_14_475
*1209 FILLER_14_477
*1210 FILLER_14_489
*1211 FILLER_14_501
*1212 FILLER_14_513
*1213 FILLER_14_53
*1214 FILLER_14_65
*1215 FILLER_14_77
*1216 FILLER_14_83
*1217 FILLER_14_85
*1218 FILLER_14_97
*1219 FILLER_15_105
*1220 FILLER_15_111
*1221 FILLER_15_113
*1222 FILLER_15_125
*1223 FILLER_15_137
*1224 FILLER_15_149
*1225 FILLER_15_15
*1226 FILLER_15_161
*1227 FILLER_15_167
*1228 FILLER_15_169
*1229 FILLER_15_181
*1230 FILLER_15_193
*1231 FILLER_15_205
*1232 FILLER_15_217
*1233 FILLER_15_223
*1234 FILLER_15_225
*1235 FILLER_15_237
*1236 FILLER_15_249
*1237 FILLER_15_261
*1238 FILLER_15_27
*1239 FILLER_15_273
*1240 FILLER_15_279
*1241 FILLER_15_281
*1242 FILLER_15_293
*1243 FILLER_15_3
*1244 FILLER_15_305
*1245 FILLER_15_317
*1246 FILLER_15_329
*1247 FILLER_15_335
*1248 FILLER_15_337
*1249 FILLER_15_349
*1250 FILLER_15_361
*1251 FILLER_15_373
*1252 FILLER_15_385
*1253 FILLER_15_39
*1254 FILLER_15_391
*1255 FILLER_15_393
*1256 FILLER_15_405
*1257 FILLER_15_417
*1258 FILLER_15_429
*1259 FILLER_15_441
*1260 FILLER_15_447
*1261 FILLER_15_449
*1262 FILLER_15_461
*1263 FILLER_15_473
*1264 FILLER_15_485
*1265 FILLER_15_497
*1266 FILLER_15_503
*1267 FILLER_15_505
*1268 FILLER_15_51
*1269 FILLER_15_513
*1270 FILLER_15_55
*1271 FILLER_15_57
*1272 FILLER_15_69
*1273 FILLER_15_81
*1274 FILLER_15_93
*1275 FILLER_16_109
*1276 FILLER_16_121
*1277 FILLER_16_133
*1278 FILLER_16_139
*1279 FILLER_16_141
*1280 FILLER_16_15
*1281 FILLER_16_153
*1282 FILLER_16_165
*1283 FILLER_16_177
*1284 FILLER_16_189
*1285 FILLER_16_195
*1286 FILLER_16_197
*1287 FILLER_16_209
*1288 FILLER_16_221
*1289 FILLER_16_233
*1290 FILLER_16_245
*1291 FILLER_16_251
*1292 FILLER_16_253
*1293 FILLER_16_265
*1294 FILLER_16_27
*1295 FILLER_16_277
*1296 FILLER_16_289
*1297 FILLER_16_29
*1298 FILLER_16_3
*1299 FILLER_16_301
*1300 FILLER_16_307
*1301 FILLER_16_309
*1302 FILLER_16_321
*1303 FILLER_16_333
*1304 FILLER_16_345
*1305 FILLER_16_357
*1306 FILLER_16_363
*1307 FILLER_16_365
*1308 FILLER_16_377
*1309 FILLER_16_389
*1310 FILLER_16_401
*1311 FILLER_16_41
*1312 FILLER_16_413
*1313 FILLER_16_419
*1314 FILLER_16_421
*1315 FILLER_16_433
*1316 FILLER_16_445
*1317 FILLER_16_457
*1318 FILLER_16_469
*1319 FILLER_16_475
*1320 FILLER_16_477
*1321 FILLER_16_489
*1322 FILLER_16_501
*1323 FILLER_16_513
*1324 FILLER_16_53
*1325 FILLER_16_65
*1326 FILLER_16_77
*1327 FILLER_16_83
*1328 FILLER_16_85
*1329 FILLER_16_97
*1330 FILLER_17_105
*1331 FILLER_17_111
*1332 FILLER_17_113
*1333 FILLER_17_125
*1334 FILLER_17_137
*1335 FILLER_17_149
*1336 FILLER_17_15
*1337 FILLER_17_161
*1338 FILLER_17_167
*1339 FILLER_17_169
*1340 FILLER_17_181
*1341 FILLER_17_193
*1342 FILLER_17_205
*1343 FILLER_17_217
*1344 FILLER_17_223
*1345 FILLER_17_225
*1346 FILLER_17_237
*1347 FILLER_17_249
*1348 FILLER_17_261
*1349 FILLER_17_27
*1350 FILLER_17_273
*1351 FILLER_17_279
*1352 FILLER_17_281
*1353 FILLER_17_293
*1354 FILLER_17_3
*1355 FILLER_17_305
*1356 FILLER_17_317
*1357 FILLER_17_329
*1358 FILLER_17_335
*1359 FILLER_17_337
*1360 FILLER_17_349
*1361 FILLER_17_361
*1362 FILLER_17_373
*1363 FILLER_17_385
*1364 FILLER_17_39
*1365 FILLER_17_391
*1366 FILLER_17_393
*1367 FILLER_17_405
*1368 FILLER_17_417
*1369 FILLER_17_429
*1370 FILLER_17_441
*1371 FILLER_17_447
*1372 FILLER_17_449
*1373 FILLER_17_461
*1374 FILLER_17_473
*1375 FILLER_17_485
*1376 FILLER_17_497
*1377 FILLER_17_503
*1378 FILLER_17_505
*1379 FILLER_17_51
*1380 FILLER_17_513
*1381 FILLER_17_55
*1382 FILLER_17_57
*1383 FILLER_17_69
*1384 FILLER_17_81
*1385 FILLER_17_93
*1386 FILLER_18_109
*1387 FILLER_18_121
*1388 FILLER_18_133
*1389 FILLER_18_139
*1390 FILLER_18_141
*1391 FILLER_18_15
*1392 FILLER_18_153
*1393 FILLER_18_165
*1394 FILLER_18_177
*1395 FILLER_18_189
*1396 FILLER_18_195
*1397 FILLER_18_197
*1398 FILLER_18_209
*1399 FILLER_18_221
*1400 FILLER_18_233
*1401 FILLER_18_245
*1402 FILLER_18_251
*1403 FILLER_18_253
*1404 FILLER_18_265
*1405 FILLER_18_27
*1406 FILLER_18_277
*1407 FILLER_18_289
*1408 FILLER_18_29
*1409 FILLER_18_3
*1410 FILLER_18_301
*1411 FILLER_18_307
*1412 FILLER_18_309
*1413 FILLER_18_321
*1414 FILLER_18_333
*1415 FILLER_18_345
*1416 FILLER_18_357
*1417 FILLER_18_363
*1418 FILLER_18_365
*1419 FILLER_18_377
*1420 FILLER_18_389
*1421 FILLER_18_401
*1422 FILLER_18_41
*1423 FILLER_18_413
*1424 FILLER_18_419
*1425 FILLER_18_421
*1426 FILLER_18_433
*1427 FILLER_18_445
*1428 FILLER_18_457
*1429 FILLER_18_469
*1430 FILLER_18_475
*1431 FILLER_18_477
*1432 FILLER_18_489
*1433 FILLER_18_501
*1434 FILLER_18_513
*1435 FILLER_18_53
*1436 FILLER_18_65
*1437 FILLER_18_77
*1438 FILLER_18_83
*1439 FILLER_18_85
*1440 FILLER_18_97
*1441 FILLER_19_105
*1442 FILLER_19_111
*1443 FILLER_19_113
*1444 FILLER_19_125
*1445 FILLER_19_137
*1446 FILLER_19_149
*1447 FILLER_19_15
*1448 FILLER_19_161
*1449 FILLER_19_167
*1450 FILLER_19_169
*1451 FILLER_19_181
*1452 FILLER_19_193
*1453 FILLER_19_205
*1454 FILLER_19_217
*1455 FILLER_19_223
*1456 FILLER_19_225
*1457 FILLER_19_237
*1458 FILLER_19_249
*1459 FILLER_19_261
*1460 FILLER_19_27
*1461 FILLER_19_273
*1462 FILLER_19_279
*1463 FILLER_19_281
*1464 FILLER_19_293
*1465 FILLER_19_3
*1466 FILLER_19_305
*1467 FILLER_19_317
*1468 FILLER_19_329
*1469 FILLER_19_335
*1470 FILLER_19_337
*1471 FILLER_19_349
*1472 FILLER_19_361
*1473 FILLER_19_373
*1474 FILLER_19_385
*1475 FILLER_19_39
*1476 FILLER_19_391
*1477 FILLER_19_393
*1478 FILLER_19_405
*1479 FILLER_19_417
*1480 FILLER_19_429
*1481 FILLER_19_441
*1482 FILLER_19_447
*1483 FILLER_19_449
*1484 FILLER_19_461
*1485 FILLER_19_473
*1486 FILLER_19_485
*1487 FILLER_19_497
*1488 FILLER_19_503
*1489 FILLER_19_505
*1490 FILLER_19_51
*1491 FILLER_19_513
*1492 FILLER_19_55
*1493 FILLER_19_57
*1494 FILLER_19_69
*1495 FILLER_19_81
*1496 FILLER_19_93
*1497 FILLER_1_102
*1498 FILLER_1_110
*1499 FILLER_1_113
*1500 FILLER_1_119
*1501 FILLER_1_126
*1502 FILLER_1_13
*1503 FILLER_1_133
*1504 FILLER_1_140
*1505 FILLER_1_147
*1506 FILLER_1_154
*1507 FILLER_1_161
*1508 FILLER_1_167
*1509 FILLER_1_172
*1510 FILLER_1_179
*1511 FILLER_1_188
*1512 FILLER_1_195
*1513 FILLER_1_20
*1514 FILLER_1_220
*1515 FILLER_1_246
*1516 FILLER_1_27
*1517 FILLER_1_271
*1518 FILLER_1_279
*1519 FILLER_1_302
*1520 FILLER_1_327
*1521 FILLER_1_335
*1522 FILLER_1_34
*1523 FILLER_1_358
*1524 FILLER_1_365
*1525 FILLER_1_372
*1526 FILLER_1_379
*1527 FILLER_1_386
*1528 FILLER_1_396
*1529 FILLER_1_403
*1530 FILLER_1_41
*1531 FILLER_1_410
*1532 FILLER_1_417
*1533 FILLER_1_424
*1534 FILLER_1_431
*1535 FILLER_1_438
*1536 FILLER_1_446
*1537 FILLER_1_452
*1538 FILLER_1_459
*1539 FILLER_1_466
*1540 FILLER_1_473
*1541 FILLER_1_48
*1542 FILLER_1_480
*1543 FILLER_1_487
*1544 FILLER_1_494
*1545 FILLER_1_502
*1546 FILLER_1_508
*1547 FILLER_1_6
*1548 FILLER_1_60
*1549 FILLER_1_67
*1550 FILLER_1_74
*1551 FILLER_1_81
*1552 FILLER_1_88
*1553 FILLER_1_95
*1554 FILLER_20_109
*1555 FILLER_20_121
*1556 FILLER_20_133
*1557 FILLER_20_139
*1558 FILLER_20_141
*1559 FILLER_20_15
*1560 FILLER_20_153
*1561 FILLER_20_165
*1562 FILLER_20_177
*1563 FILLER_20_189
*1564 FILLER_20_195
*1565 FILLER_20_197
*1566 FILLER_20_209
*1567 FILLER_20_221
*1568 FILLER_20_233
*1569 FILLER_20_245
*1570 FILLER_20_251
*1571 FILLER_20_253
*1572 FILLER_20_265
*1573 FILLER_20_27
*1574 FILLER_20_277
*1575 FILLER_20_289
*1576 FILLER_20_29
*1577 FILLER_20_3
*1578 FILLER_20_301
*1579 FILLER_20_307
*1580 FILLER_20_309
*1581 FILLER_20_321
*1582 FILLER_20_333
*1583 FILLER_20_345
*1584 FILLER_20_357
*1585 FILLER_20_363
*1586 FILLER_20_365
*1587 FILLER_20_377
*1588 FILLER_20_389
*1589 FILLER_20_401
*1590 FILLER_20_41
*1591 FILLER_20_413
*1592 FILLER_20_419
*1593 FILLER_20_421
*1594 FILLER_20_433
*1595 FILLER_20_445
*1596 FILLER_20_457
*1597 FILLER_20_469
*1598 FILLER_20_475
*1599 FILLER_20_477
*1600 FILLER_20_489
*1601 FILLER_20_501
*1602 FILLER_20_513
*1603 FILLER_20_53
*1604 FILLER_20_65
*1605 FILLER_20_77
*1606 FILLER_20_83
*1607 FILLER_20_85
*1608 FILLER_20_97
*1609 FILLER_21_105
*1610 FILLER_21_111
*1611 FILLER_21_113
*1612 FILLER_21_125
*1613 FILLER_21_137
*1614 FILLER_21_149
*1615 FILLER_21_15
*1616 FILLER_21_161
*1617 FILLER_21_167
*1618 FILLER_21_169
*1619 FILLER_21_181
*1620 FILLER_21_193
*1621 FILLER_21_205
*1622 FILLER_21_217
*1623 FILLER_21_223
*1624 FILLER_21_225
*1625 FILLER_21_237
*1626 FILLER_21_249
*1627 FILLER_21_261
*1628 FILLER_21_27
*1629 FILLER_21_273
*1630 FILLER_21_279
*1631 FILLER_21_281
*1632 FILLER_21_293
*1633 FILLER_21_3
*1634 FILLER_21_305
*1635 FILLER_21_317
*1636 FILLER_21_329
*1637 FILLER_21_335
*1638 FILLER_21_337
*1639 FILLER_21_349
*1640 FILLER_21_361
*1641 FILLER_21_373
*1642 FILLER_21_385
*1643 FILLER_21_39
*1644 FILLER_21_391
*1645 FILLER_21_393
*1646 FILLER_21_405
*1647 FILLER_21_417
*1648 FILLER_21_429
*1649 FILLER_21_441
*1650 FILLER_21_447
*1651 FILLER_21_449
*1652 FILLER_21_461
*1653 FILLER_21_473
*1654 FILLER_21_485
*1655 FILLER_21_497
*1656 FILLER_21_503
*1657 FILLER_21_505
*1658 FILLER_21_51
*1659 FILLER_21_513
*1660 FILLER_21_55
*1661 FILLER_21_57
*1662 FILLER_21_69
*1663 FILLER_21_81
*1664 FILLER_21_93
*1665 FILLER_22_109
*1666 FILLER_22_121
*1667 FILLER_22_133
*1668 FILLER_22_139
*1669 FILLER_22_141
*1670 FILLER_22_15
*1671 FILLER_22_153
*1672 FILLER_22_165
*1673 FILLER_22_177
*1674 FILLER_22_189
*1675 FILLER_22_195
*1676 FILLER_22_197
*1677 FILLER_22_209
*1678 FILLER_22_221
*1679 FILLER_22_233
*1680 FILLER_22_245
*1681 FILLER_22_251
*1682 FILLER_22_253
*1683 FILLER_22_265
*1684 FILLER_22_27
*1685 FILLER_22_277
*1686 FILLER_22_289
*1687 FILLER_22_29
*1688 FILLER_22_3
*1689 FILLER_22_301
*1690 FILLER_22_307
*1691 FILLER_22_309
*1692 FILLER_22_321
*1693 FILLER_22_333
*1694 FILLER_22_345
*1695 FILLER_22_357
*1696 FILLER_22_363
*1697 FILLER_22_365
*1698 FILLER_22_377
*1699 FILLER_22_389
*1700 FILLER_22_401
*1701 FILLER_22_41
*1702 FILLER_22_413
*1703 FILLER_22_419
*1704 FILLER_22_421
*1705 FILLER_22_433
*1706 FILLER_22_445
*1707 FILLER_22_457
*1708 FILLER_22_469
*1709 FILLER_22_475
*1710 FILLER_22_477
*1711 FILLER_22_489
*1712 FILLER_22_501
*1713 FILLER_22_513
*1714 FILLER_22_53
*1715 FILLER_22_65
*1716 FILLER_22_77
*1717 FILLER_22_83