*SPEF "ieee 1481-1999"
*DESIGN "macro_15"
*DATE "11:11:11 Fri 11 11, 1111"
*VENDOR "OpenRCX"
*PROGRAM "Parallel Extraction"
*VERSION "1.0"
*DESIGN_FLOW "NAME_SCOPE LOCAL" "PIN_CAP NONE"
*DIVIDER /
*DELIMITER :
*BUS_DELIMITER []
*T_UNIT 1 NS
*C_UNIT 1 PF
*R_UNIT 1 OHM
*L_UNIT 1 HENRY

*NAME_MAP
*1 active
*2 analog_io[0]
*3 analog_io[10]
*4 analog_io[11]
*5 analog_io[12]
*6 analog_io[13]
*7 analog_io[14]
*8 analog_io[15]
*9 analog_io[16]
*10 analog_io[17]
*11 analog_io[18]
*12 analog_io[19]
*13 analog_io[1]
*14 analog_io[20]
*15 analog_io[21]
*16 analog_io[22]
*17 analog_io[23]
*18 analog_io[24]
*19 analog_io[25]
*20 analog_io[26]
*21 analog_io[27]
*22 analog_io[28]
*23 analog_io[2]
*24 analog_io[3]
*25 analog_io[4]
*26 analog_io[5]
*27 analog_io[6]
*28 analog_io[7]
*29 analog_io[8]
*30 analog_io[9]
*31 io_in[0]
*32 io_in[10]
*33 io_in[11]
*34 io_in[12]
*35 io_in[13]
*36 io_in[14]
*37 io_in[15]
*38 io_in[16]
*39 io_in[17]
*40 io_in[18]
*41 io_in[19]
*42 io_in[1]
*43 io_in[20]
*44 io_in[21]
*45 io_in[22]
*46 io_in[23]
*47 io_in[24]
*48 io_in[25]
*49 io_in[26]
*50 io_in[27]
*51 io_in[28]
*52 io_in[29]
*53 io_in[2]
*54 io_in[30]
*55 io_in[31]
*56 io_in[32]
*57 io_in[33]
*58 io_in[34]
*59 io_in[35]
*60 io_in[36]
*61 io_in[37]
*62 io_in[3]
*63 io_in[4]
*64 io_in[5]
*65 io_in[6]
*66 io_in[7]
*67 io_in[8]
*68 io_in[9]
*69 net234
*70 net244
*71 net245
*72 net246
*73 net247
*74 net248
*75 net249
*76 net250
*77 net251
*78 net252
*79 net253
*80 net235
*81 net254
*82 net255
*83 net256
*84 net257
*85 net258
*86 net259
*87 net260
*88 net261
*89 net37
*90 net38
*91 net236
*92 net39
*93 net40
*94 net41
*95 net42
*96 net43
*97 net44
*98 net45
*99 net46
*100 net237
*101 net238
*102 net239
*103 net240
*104 net241
*105 net242
*106 net243
*107 io_out[0]
*108 io_out[10]
*109 io_out[11]
*110 io_out[12]
*111 io_out[13]
*112 io_out[14]
*113 io_out[15]
*114 io_out[16]
*115 io_out[17]
*116 net50
*117 net51
*118 net47
*119 net52
*120 net53
*121 net54
*122 net55
*123 net56
*124 net57
*125 net58
*126 net59
*127 net60
*128 net61
*129 net48
*130 net62
*131 net63
*132 net64
*133 net65
*134 net66
*135 net67
*136 net68
*137 net69
*138 net49
*139 io_out[4]
*140 io_out[5]
*141 io_out[6]
*142 io_out[7]
*143 io_out[8]
*144 io_out[9]
*145 la_data_in[0]
*146 la_data_in[100]
*147 la_data_in[101]
*148 la_data_in[102]
*149 la_data_in[103]
*150 la_data_in[104]
*151 la_data_in[105]
*152 la_data_in[106]
*153 la_data_in[107]
*154 la_data_in[108]
*155 la_data_in[109]
*156 la_data_in[10]
*157 la_data_in[110]
*158 la_data_in[111]
*159 la_data_in[112]
*160 la_data_in[113]
*161 la_data_in[114]
*162 la_data_in[115]
*163 la_data_in[116]
*164 la_data_in[117]
*165 la_data_in[118]
*166 la_data_in[119]
*167 la_data_in[11]
*168 la_data_in[120]
*169 la_data_in[121]
*170 la_data_in[122]
*171 la_data_in[123]
*172 la_data_in[124]
*173 la_data_in[125]
*174 la_data_in[126]
*175 la_data_in[127]
*176 la_data_in[12]
*177 la_data_in[13]
*178 la_data_in[14]
*179 la_data_in[15]
*180 la_data_in[16]
*181 la_data_in[17]
*182 la_data_in[18]
*183 la_data_in[19]
*184 la_data_in[1]
*185 la_data_in[20]
*186 la_data_in[21]
*187 la_data_in[22]
*188 la_data_in[23]
*189 la_data_in[24]
*190 la_data_in[25]
*191 la_data_in[26]
*192 la_data_in[27]
*193 la_data_in[28]
*194 la_data_in[29]
*195 la_data_in[2]
*196 la_data_in[30]
*197 la_data_in[31]
*198 la_data_in[32]
*199 la_data_in[33]
*200 la_data_in[34]
*201 la_data_in[35]
*202 la_data_in[36]
*203 la_data_in[37]
*204 la_data_in[38]
*205 la_data_in[39]
*206 la_data_in[3]
*207 la_data_in[40]
*208 la_data_in[41]
*209 la_data_in[42]
*210 la_data_in[43]
*211 la_data_in[44]
*212 la_data_in[45]
*213 la_data_in[46]
*214 la_data_in[47]
*215 la_data_in[48]
*216 la_data_in[49]
*217 la_data_in[4]
*218 la_data_in[50]
*219 la_data_in[51]
*220 la_data_in[52]
*221 la_data_in[53]
*222 la_data_in[54]
*223 la_data_in[55]
*224 la_data_in[56]
*225 la_data_in[57]
*226 la_data_in[58]
*227 la_data_in[59]
*228 la_data_in[5]
*229 la_data_in[60]
*230 la_data_in[61]
*231 la_data_in[62]
*232 la_data_in[63]
*233 la_data_in[64]
*234 la_data_in[65]
*235 la_data_in[66]
*236 la_data_in[67]
*237 la_data_in[68]
*238 la_data_in[69]
*239 la_data_in[6]
*240 la_data_in[70]
*241 la_data_in[71]
*242 la_data_in[72]
*243 la_data_in[73]
*244 la_data_in[74]
*245 la_data_in[75]
*246 la_data_in[76]
*247 la_data_in[77]
*248 la_data_in[78]
*249 la_data_in[79]
*250 la_data_in[7]
*251 la_data_in[80]
*252 la_data_in[81]
*253 la_data_in[82]
*254 la_data_in[83]
*255 la_data_in[84]
*256 la_data_in[85]
*257 la_data_in[86]
*258 la_data_in[87]
*259 la_data_in[88]
*260 la_data_in[89]
*261 la_data_in[8]
*262 la_data_in[90]
*263 la_data_in[91]
*264 la_data_in[92]
*265 la_data_in[93]
*266 la_data_in[94]
*267 la_data_in[95]
*268 la_data_in[96]
*269 la_data_in[97]
*270 la_data_in[98]
*271 la_data_in[99]
*272 la_data_in[9]
*273 net70
*274 net138
*275 net139
*276 net140
*277 net141
*278 net142
*279 net143
*280 net144
*281 net145
*282 net146
*283 net147
*284 net80
*285 net148
*286 net149
*287 net150
*288 net151
*289 net152
*290 net153
*291 net154
*292 net155
*293 net156
*294 net157
*295 net81
*296 net158
*297 net159
*298 net160
*299 net161
*300 net162
*301 net163
*302 net164
*303 net165
*304 net82
*305 net83
*306 net84
*307 net85
*308 net86
*309 net87
*310 net88
*311 net89
*312 net71
*313 net90
*314 net91
*315 net92
*316 net93
*317 net94
*318 net95
*319 net96
*320 net97
*321 net98
*322 net99
*323 net72
*324 net100
*325 net101
*326 la_data_out[32]
*327 la_data_out[33]
*328 la_data_out[34]
*329 la_data_out[35]
*330 la_data_out[36]
*331 la_data_out[37]
*332 la_data_out[38]
*333 la_data_out[39]
*334 net73
*335 la_data_out[40]
*336 la_data_out[41]
*337 la_data_out[42]
*338 la_data_out[43]
*339 la_data_out[44]
*340 la_data_out[45]
*341 la_data_out[46]
*342 la_data_out[47]
*343 la_data_out[48]
*344 la_data_out[49]
*345 net74
*346 la_data_out[50]
*347 la_data_out[51]
*348 la_data_out[52]
*349 la_data_out[53]
*350 la_data_out[54]
*351 la_data_out[55]
*352 la_data_out[56]
*353 la_data_out[57]
*354 la_data_out[58]
*355 la_data_out[59]
*356 net75
*357 la_data_out[60]
*358 la_data_out[61]
*359 la_data_out[62]
*360 la_data_out[63]
*361 net102
*362 net103
*363 net104
*364 net105
*365 net106
*366 net107
*367 net76
*368 net108
*369 net109
*370 net110
*371 net111
*372 net112
*373 net113
*374 net114
*375 net115
*376 net116
*377 net117
*378 net77
*379 net118
*380 net119
*381 net120
*382 net121
*383 net122
*384 net123
*385 net124
*386 net125
*387 net126
*388 net127
*389 net78
*390 net128
*391 net129
*392 net130
*393 net131
*394 net132
*395 net133
*396 net134
*397 net135
*398 net136
*399 net137
*400 net79
*401 la_oenb[0]
*402 la_oenb[100]
*403 la_oenb[101]
*404 la_oenb[102]
*405 la_oenb[103]
*406 la_oenb[104]
*407 la_oenb[105]
*408 la_oenb[106]
*409 la_oenb[107]
*410 la_oenb[108]
*411 la_oenb[109]
*412 la_oenb[10]
*413 la_oenb[110]
*414 la_oenb[111]
*415 la_oenb[112]
*416 la_oenb[113]
*417 la_oenb[114]
*418 la_oenb[115]
*419 la_oenb[116]
*420 la_oenb[117]
*421 la_oenb[118]
*422 la_oenb[119]
*423 la_oenb[11]
*424 la_oenb[120]
*425 la_oenb[121]
*426 la_oenb[122]
*427 la_oenb[123]
*428 la_oenb[124]
*429 la_oenb[125]
*430 la_oenb[126]
*431 la_oenb[127]
*432 la_oenb[12]
*433 la_oenb[13]
*434 la_oenb[14]
*435 la_oenb[15]
*436 la_oenb[16]
*437 la_oenb[17]
*438 la_oenb[18]
*439 la_oenb[19]
*440 la_oenb[1]
*441 la_oenb[20]
*442 la_oenb[21]
*443 la_oenb[22]
*444 la_oenb[23]
*445 la_oenb[24]
*446 la_oenb[25]
*447 la_oenb[26]
*448 la_oenb[27]
*449 la_oenb[28]
*450 la_oenb[29]
*451 la_oenb[2]
*452 la_oenb[30]
*453 la_oenb[31]
*454 la_oenb[32]
*455 la_oenb[33]
*456 la_oenb[34]
*457 la_oenb[35]
*458 la_oenb[36]
*459 la_oenb[37]
*460 la_oenb[38]
*461 la_oenb[39]
*462 la_oenb[3]
*463 la_oenb[40]
*464 la_oenb[41]
*465 la_oenb[42]
*466 la_oenb[43]
*467 la_oenb[44]
*468 la_oenb[45]
*469 la_oenb[46]
*470 la_oenb[47]
*471 la_oenb[48]
*472 la_oenb[49]
*473 la_oenb[4]
*474 la_oenb[50]
*475 la_oenb[51]
*476 la_oenb[52]
*477 la_oenb[53]
*478 la_oenb[54]
*479 la_oenb[55]
*480 la_oenb[56]
*481 la_oenb[57]
*482 la_oenb[58]
*483 la_oenb[59]
*484 la_oenb[5]
*485 la_oenb[60]
*486 la_oenb[61]
*487 la_oenb[62]
*488 la_oenb[63]
*489 la_oenb[64]
*490 la_oenb[65]
*491 la_oenb[66]
*492 la_oenb[67]
*493 la_oenb[68]
*494 la_oenb[69]
*495 la_oenb[6]
*496 la_oenb[70]
*497 la_oenb[71]
*498 la_oenb[72]
*499 la_oenb[73]
*500 la_oenb[74]
*501 la_oenb[75]
*502 la_oenb[76]
*503 la_oenb[77]
*504 la_oenb[78]
*505 la_oenb[79]
*506 la_oenb[7]
*507 la_oenb[80]
*508 la_oenb[81]
*509 la_oenb[82]
*510 la_oenb[83]
*511 la_oenb[84]
*512 la_oenb[85]
*513 la_oenb[86]
*514 la_oenb[87]
*515 la_oenb[88]
*516 la_oenb[89]
*517 la_oenb[8]
*518 la_oenb[90]
*519 la_oenb[91]
*520 la_oenb[92]
*521 la_oenb[93]
*522 la_oenb[94]
*523 la_oenb[95]
*524 la_oenb[96]
*525 la_oenb[97]
*526 la_oenb[98]
*527 la_oenb[99]
*528 la_oenb[9]
*529 user_clock2
*530 net166
*531 net167
*532 net168
*535 wb_clk_i
*536 wb_rst_i
*537 net169
*538 wbs_adr_i[0]
*539 wbs_adr_i[10]
*540 wbs_adr_i[11]
*541 wbs_adr_i[12]
*542 wbs_adr_i[13]
*543 wbs_adr_i[14]
*544 wbs_adr_i[15]
*545 wbs_adr_i[16]
*546 wbs_adr_i[17]
*547 wbs_adr_i[18]
*548 wbs_adr_i[19]
*549 wbs_adr_i[1]
*550 wbs_adr_i[20]
*551 wbs_adr_i[21]
*552 wbs_adr_i[22]
*553 wbs_adr_i[23]
*554 wbs_adr_i[24]
*555 wbs_adr_i[25]
*556 wbs_adr_i[26]
*557 wbs_adr_i[27]
*558 wbs_adr_i[28]
*559 wbs_adr_i[29]
*560 wbs_adr_i[2]
*561 wbs_adr_i[30]
*562 wbs_adr_i[31]
*563 wbs_adr_i[3]
*564 wbs_adr_i[4]
*565 wbs_adr_i[5]
*566 wbs_adr_i[6]
*567 wbs_adr_i[7]
*568 wbs_adr_i[8]
*569 wbs_adr_i[9]
*570 wbs_cyc_i
*571 wbs_dat_i[0]
*572 wbs_dat_i[10]
*573 wbs_dat_i[11]
*574 wbs_dat_i[12]
*575 wbs_dat_i[13]
*576 wbs_dat_i[14]
*577 wbs_dat_i[15]
*578 wbs_dat_i[16]
*579 wbs_dat_i[17]
*580 wbs_dat_i[18]
*581 wbs_dat_i[19]
*582 wbs_dat_i[1]
*583 wbs_dat_i[20]
*584 wbs_dat_i[21]
*585 wbs_dat_i[22]
*586 wbs_dat_i[23]
*587 wbs_dat_i[24]
*588 wbs_dat_i[25]
*589 wbs_dat_i[26]
*590 wbs_dat_i[27]
*591 wbs_dat_i[28]
*592 wbs_dat_i[29]
*593 wbs_dat_i[2]
*594 wbs_dat_i[30]
*595 wbs_dat_i[31]
*596 wbs_dat_i[3]
*597 wbs_dat_i[4]
*598 wbs_dat_i[5]
*599 wbs_dat_i[6]
*600 wbs_dat_i[7]
*601 wbs_dat_i[8]
*602 wbs_dat_i[9]
*603 net170
*604 net180
*605 net181
*606 net182
*607 net183
*608 net184
*609 net185
*610 net186
*611 net187
*612 net188
*613 net189
*614 net171
*615 net190
*616 net191
*617 net192
*618 net193
*619 net194
*620 net195
*621 net196
*622 net197
*623 net198
*624 net199
*625 net172
*626 net200
*627 net201
*628 net173
*629 net174
*630 net175
*631 net176
*632 net177
*633 net178
*634 net179
*635 wbs_sel_i[0]
*636 wbs_sel_i[1]
*637 wbs_sel_i[2]
*638 wbs_sel_i[3]
*639 wbs_stb_i
*640 wbs_we_i
*641 _000_
*642 _001_
*643 _002_
*644 _003_
*645 _004_
*646 _005_
*647 _006_
*648 _007_
*649 _008_
*650 _009_
*651 _010_
*652 _011_
*653 _012_
*654 _013_
*655 _014_
*656 _015_
*657 _016_
*658 _017_
*659 _018_
*660 _019_
*661 _020_
*662 _021_
*663 _022_
*664 _023_
*665 _024_
*666 _025_
*667 _026_
*668 _027_
*669 _028_
*670 _029_
*671 _030_
*672 _031_
*673 _032_
*674 _033_
*675 _034_
*676 _035_
*677 _036_
*678 _037_
*679 _038_
*680 _039_
*681 _040_
*682 _041_
*683 _042_
*684 _043_
*685 _044_
*686 _045_
*687 _046_
*688 _047_
*689 _048_
*690 _049_
*691 _050_
*692 _051_
*693 _052_
*694 _053_
*695 _054_
*696 _055_
*697 _056_
*698 _057_
*699 _058_
*700 _059_
*701 _060_
*702 _061_
*703 _062_
*704 _063_
*705 _064_
*706 _065_
*707 _066_
*708 _067_
*709 _068_
*710 _069_
*711 _070_
*712 _071_
*713 _072_
*714 _073_
*715 _074_
*716 _075_
*717 _076_
*718 _077_
*719 _078_
*720 _079_
*721 _080_
*722 _081_
*723 _082_
*724 _083_
*725 _084_
*726 _085_
*727 _086_
*728 _087_
*729 _088_
*730 _089_
*731 _090_
*732 _091_
*733 _092_
*734 _093_
*735 _094_
*736 _095_
*737 _096_
*738 _097_
*739 _098_
*740 _099_
*741 _100_
*742 _101_
*743 _102_
*744 _103_
*745 _104_
*746 _105_
*747 _106_
*748 _107_
*749 _108_
*750 _109_
*751 _110_
*752 _111_
*753 _112_
*754 _113_
*755 _114_
*756 _115_
*757 _116_
*758 _117_
*759 _118_
*760 _119_
*761 _120_
*762 _121_
*763 _122_
*764 _123_
*765 _124_
*766 _125_
*767 _126_
*768 _127_
*769 _128_
*770 _129_
*771 _130_
*772 _131_
*773 _132_
*774 _133_
*775 _134_
*776 _135_
*777 _136_
*778 _137_
*779 net1
*780 net10
*781 net11
*782 net12
*783 net13
*784 net14
*785 net15
*786 net16
*787 net17
*788 net18
*789 net19
*790 net2
*791 net20
*792 net202
*793 net203
*794 net204
*795 net205
*796 net206
*797 net207
*798 net208
*799 net209
*800 net21
*801 net210
*802 net211
*803 net212
*804 net213
*805 net214
*806 net215
*807 net216
*808 net217
*809 net218
*810 net219
*811 net22
*812 net220
*813 net221
*814 net222
*815 net223
*816 net224
*817 net225
*818 net226
*819 net227
*820 net228
*821 net229
*822 net23
*823 net230
*824 net231
*825 net232
*826 net233
*827 net24
*828 net25
*829 net26
*830 net27
*831 net28
*832 net29
*833 net3
*834 net30
*835 net31
*836 net32
*837 net33
*838 net34
*839 net35
*840 net36
*841 net4
*842 net5
*843 net6
*844 net7
*845 net8
*846 net9
*847 ANTENNA__170__A
*848 ANTENNA__171__A
*849 ANTENNA__172__A
*850 ANTENNA__197__A
*851 ANTENNA__203__A
*852 ANTENNA__211__A_N
*853 ANTENNA__211__B
*854 ANTENNA__230__A
*855 ANTENNA__234__A_N
*856 ANTENNA__234__B
*857 ANTENNA__253__A
*858 ANTENNA__258__B1
*859 ANTENNA__259__A
*860 ANTENNA__260__B2
*861 ANTENNA__263__A
*862 ANTENNA__264__B2
*863 ANTENNA__267__A
*864 ANTENNA__270__A
*865 ANTENNA__275__A
*866 ANTENNA__276__A2
*867 ANTENNA__281__A
*868 ANTENNA__282__A2
*869 ANTENNA__294__B1
*870 ANTENNA__295__A1
*871 ANTENNA__321__C1
*872 ANTENNA_input10_A
*873 ANTENNA_input11_A
*874 ANTENNA_input12_A
*875 ANTENNA_input13_A
*876 ANTENNA_input14_A
*877 ANTENNA_input15_A
*878 ANTENNA_input16_A
*879 ANTENNA_input17_A
*880 ANTENNA_input18_A
*881 ANTENNA_input19_A
*882 ANTENNA_input1_A
*883 ANTENNA_input20_A
*884 ANTENNA_input21_A
*885 ANTENNA_input2_A
*886 ANTENNA_input3_A
*887 ANTENNA_input4_A
*888 ANTENNA_input5_A
*889 ANTENNA_input6_A
*890 ANTENNA_input7_A
*891 ANTENNA_input8_A
*892 ANTENNA_input9_A
*893 ANTENNA_output22_A
*894 ANTENNA_output31_A
*895 FILLER_0_100
*896 FILLER_0_104
*897 FILLER_0_108
*898 FILLER_0_115
*899 FILLER_0_122
*900 FILLER_0_13
*901 FILLER_0_132
*902 FILLER_0_139
*903 FILLER_0_146
*904 FILLER_0_153
*905 FILLER_0_159
*906 FILLER_0_164
*907 FILLER_0_171
*908 FILLER_0_177
*909 FILLER_0_181
*910 FILLER_0_188
*911 FILLER_0_193
*912 FILLER_0_20
*913 FILLER_0_220
*914 FILLER_0_246
*915 FILLER_0_252
*916 FILLER_0_27
*917 FILLER_0_278
*918 FILLER_0_286
*919 FILLER_0_31
*920 FILLER_0_310
*921 FILLER_0_318
*922 FILLER_0_342
*923 FILLER_0_350
*924 FILLER_0_36
*925 FILLER_0_374
*926 FILLER_0_382
*927 FILLER_0_388
*928 FILLER_0_395
*929 FILLER_0_402
*930 FILLER_0_409
*931 FILLER_0_415
*932 FILLER_0_420
*933 FILLER_0_427
*934 FILLER_0_43
*935 FILLER_0_434
*936 FILLER_0_441
*937 FILLER_0_447
*938 FILLER_0_452
*939 FILLER_0_459
*940 FILLER_0_466
*941 FILLER_0_473
*942 FILLER_0_479
*943 FILLER_0_484
*944 FILLER_0_491
*945 FILLER_0_498
*946 FILLER_0_50
*947 FILLER_0_505
*948 FILLER_0_511
*949 FILLER_0_513
*950 FILLER_0_57
*951 FILLER_0_6
*952 FILLER_0_63
*953 FILLER_0_68
*954 FILLER_0_75
*955 FILLER_0_82
*956 FILLER_0_89
*957 FILLER_0_95
*958 FILLER_10_110
*959 FILLER_10_122
*960 FILLER_10_134
*961 FILLER_10_146
*962 FILLER_10_15
*963 FILLER_10_158
*964 FILLER_10_163
*965 FILLER_10_175
*966 FILLER_10_187
*967 FILLER_10_199
*968 FILLER_10_211
*969 FILLER_10_223
*970 FILLER_10_228
*971 FILLER_10_240
*972 FILLER_10_251
*973 FILLER_10_258
*974 FILLER_10_267
*975 FILLER_10_27
*976 FILLER_10_279
*977 FILLER_10_291
*978 FILLER_10_293
*979 FILLER_10_3
*980 FILLER_10_305
*981 FILLER_10_31
*982 FILLER_10_317
*983 FILLER_10_329
*984 FILLER_10_33
*985 FILLER_10_341
*986 FILLER_10_353
*987 FILLER_10_358
*988 FILLER_10_370
*989 FILLER_10_382
*990 FILLER_10_394
*991 FILLER_10_406
*992 FILLER_10_418
*993 FILLER_10_423
*994 FILLER_10_435
*995 FILLER_10_447
*996 FILLER_10_45
*997 FILLER_10_459
*998 FILLER_10_471
*999 FILLER_10_483
*1000 FILLER_10_488
*1001 FILLER_10_500
*1002 FILLER_10_508
*1003 FILLER_10_512
*1004 FILLER_10_57
*1005 FILLER_10_69
*1006 FILLER_10_81
*1007 FILLER_10_93
*1008 FILLER_10_98
*1009 FILLER_11_102
*1010 FILLER_11_114
*1011 FILLER_11_126
*1012 FILLER_11_131
*1013 FILLER_11_143
*1014 FILLER_11_15
*1015 FILLER_11_155
*1016 FILLER_11_167
*1017 FILLER_11_179
*1018 FILLER_11_191
*1019 FILLER_11_196
*1020 FILLER_11_208
*1021 FILLER_11_220
*1022 FILLER_11_232
*1023 FILLER_11_244
*1024 FILLER_11_256
*1025 FILLER_11_261
*1026 FILLER_11_27
*1027 FILLER_11_273
*1028 FILLER_11_285
*1029 FILLER_11_297
*1030 FILLER_11_3
*1031 FILLER_11_309
*1032 FILLER_11_321
*1033 FILLER_11_326
*1034 FILLER_11_338
*1035 FILLER_11_350
*1036 FILLER_11_362
*1037 FILLER_11_374
*1038 FILLER_11_386
*1039 FILLER_11_39
*1040 FILLER_11_391
*1041 FILLER_11_403
*1042 FILLER_11_415
*1043 FILLER_11_427
*1044 FILLER_11_439
*1045 FILLER_11_451
*1046 FILLER_11_456
*1047 FILLER_11_468
*1048 FILLER_11_480
*1049 FILLER_11_492
*1050 FILLER_11_504
*1051 FILLER_11_51
*1052 FILLER_11_63
*1053 FILLER_11_66
*1054 FILLER_11_78
*1055 FILLER_11_90
*1056 FILLER_12_110
*1057 FILLER_12_122
*1058 FILLER_12_134
*1059 FILLER_12_146
*1060 FILLER_12_15
*1061 FILLER_12_158
*1062 FILLER_12_163
*1063 FILLER_12_175
*1064 FILLER_12_187
*1065 FILLER_12_199
*1066 FILLER_12_211
*1067 FILLER_12_223
*1068 FILLER_12_228
*1069 FILLER_12_240
*1070 FILLER_12_252
*1071 FILLER_12_264
*1072 FILLER_12_27
*1073 FILLER_12_276
*1074 FILLER_12_288
*1075 FILLER_12_293
*1076 FILLER_12_3
*1077 FILLER_12_305
*1078 FILLER_12_31
*1079 FILLER_12_317
*1080 FILLER_12_329
*1081 FILLER_12_33
*1082 FILLER_12_341
*1083 FILLER_12_353
*1084 FILLER_12_358
*1085 FILLER_12_370
*1086 FILLER_12_382
*1087 FILLER_12_394
*1088 FILLER_12_406
*1089 FILLER_12_418
*1090 FILLER_12_423
*1091 FILLER_12_435
*1092 FILLER_12_447
*1093 FILLER_12_45
*1094 FILLER_12_459
*1095 FILLER_12_471
*1096 FILLER_12_483
*1097 FILLER_12_488
*1098 FILLER_12_500
*1099 FILLER_12_512
*1100 FILLER_12_57
*1101 FILLER_12_69
*1102 FILLER_12_81
*1103 FILLER_12_93
*1104 FILLER_12_98
*1105 FILLER_13_102
*1106 FILLER_13_114
*1107 FILLER_13_126
*1108 FILLER_13_131
*1109 FILLER_13_143
*1110 FILLER_13_15
*1111 FILLER_13_155
*1112 FILLER_13_167
*1113 FILLER_13_179
*1114 FILLER_13_191
*1115 FILLER_13_196
*1116 FILLER_13_208
*1117 FILLER_13_220
*1118 FILLER_13_232
*1119 FILLER_13_244
*1120 FILLER_13_256
*1121 FILLER_13_261
*1122 FILLER_13_27
*1123 FILLER_13_273
*1124 FILLER_13_285
*1125 FILLER_13_297
*1126 FILLER_13_3
*1127 FILLER_13_309
*1128 FILLER_13_321
*1129 FILLER_13_326
*1130 FILLER_13_338
*1131 FILLER_13_350
*1132 FILLER_13_362
*1133 FILLER_13_374
*1134 FILLER_13_386
*1135 FILLER_13_39
*1136 FILLER_13_391
*1137 FILLER_13_403
*1138 FILLER_13_415
*1139 FILLER_13_427
*1140 FILLER_13_439
*1141 FILLER_13_451
*1142 FILLER_13_456
*1143 FILLER_13_468
*1144 FILLER_13_480
*1145 FILLER_13_492
*1146 FILLER_13_504
*1147 FILLER_13_51
*1148 FILLER_13_63
*1149 FILLER_13_66
*1150 FILLER_13_78
*1151 FILLER_13_90
*1152 FILLER_14_110
*1153 FILLER_14_122
*1154 FILLER_14_134
*1155 FILLER_14_146
*1156 FILLER_14_15
*1157 FILLER_14_158
*1158 FILLER_14_163
*1159 FILLER_14_175
*1160 FILLER_14_187
*1161 FILLER_14_199
*1162 FILLER_14_211
*1163 FILLER_14_223
*1164 FILLER_14_228
*1165 FILLER_14_240
*1166 FILLER_14_252
*1167 FILLER_14_264
*1168 FILLER_14_27
*1169 FILLER_14_276
*1170 FILLER_14_288
*1171 FILLER_14_293
*1172 FILLER_14_3
*1173 FILLER_14_305
*1174 FILLER_14_31
*1175 FILLER_14_317
*1176 FILLER_14_329
*1177 FILLER_14_33
*1178 FILLER_14_341
*1179 FILLER_14_353
*1180 FILLER_14_358
*1181 FILLER_14_370
*1182 FILLER_14_382
*1183 FILLER_14_394
*1184 FILLER_14_406
*1185 FILLER_14_418
*1186 FILLER_14_423
*1187 FILLER_14_435
*1188 FILLER_14_447
*1189 FILLER_14_45
*1190 FILLER_14_459
*1191 FILLER_14_471
*1192 FILLER_14_483
*1193 FILLER_14_488
*1194 FILLER_14_500
*1195 FILLER_14_512
*1196 FILLER_14_57
*1197 FILLER_14_69
*1198 FILLER_14_81
*1199 FILLER_14_93
*1200 FILLER_14_98
*1201 FILLER_15_102
*1202 FILLER_15_114
*1203 FILLER_15_126
*1204 FILLER_15_131
*1205 FILLER_15_143
*1206 FILLER_15_15
*1207 FILLER_15_155
*1208 FILLER_15_167
*1209 FILLER_15_179
*1210 FILLER_15_191
*1211 FILLER_15_196
*1212 FILLER_15_208
*1213 FILLER_15_220
*1214 FILLER_15_232
*1215 FILLER_15_244
*1216 FILLER_15_256
*1217 FILLER_15_261
*1218 FILLER_15_27
*1219 FILLER_15_273
*1220 FILLER_15_285
*1221 FILLER_15_297
*1222 FILLER_15_3
*1223 FILLER_15_309
*1224 FILLER_15_321
*1225 FILLER_15_326
*1226 FILLER_15_338
*1227 FILLER_15_350
*1228 FILLER_15_362
*1229 FILLER_15_374
*1230 FILLER_15_386
*1231 FILLER_15_39
*1232 FILLER_15_391
*1233 FILLER_15_403
*1234 FILLER_15_415
*1235 FILLER_15_427
*1236 FILLER_15_439
*1237 FILLER_15_451
*1238 FILLER_15_456
*1239 FILLER_15_468
*1240 FILLER_15_480
*1241 FILLER_15_492
*1242 FILLER_15_504
*1243 FILLER_15_51
*1244 FILLER_15_63
*1245 FILLER_15_66
*1246 FILLER_15_78
*1247 FILLER_15_90
*1248 FILLER_16_110
*1249 FILLER_16_122
*1250 FILLER_16_134
*1251 FILLER_16_146
*1252 FILLER_16_15
*1253 FILLER_16_158
*1254 FILLER_16_163
*1255 FILLER_16_175
*1256 FILLER_16_187
*1257 FILLER_16_199
*1258 FILLER_16_211
*1259 FILLER_16_223
*1260 FILLER_16_228
*1261 FILLER_16_240
*1262 FILLER_16_252
*1263 FILLER_16_264
*1264 FILLER_16_27
*1265 FILLER_16_276
*1266 FILLER_16_288
*1267 FILLER_16_293
*1268 FILLER_16_3
*1269 FILLER_16_305
*1270 FILLER_16_31
*1271 FILLER_16_317
*1272 FILLER_16_329
*1273 FILLER_16_33
*1274 FILLER_16_341
*1275 FILLER_16_353
*1276 FILLER_16_358
*1277 FILLER_16_370
*1278 FILLER_16_382
*1279 FILLER_16_394
*1280 FILLER_16_406
*1281 FILLER_16_418
*1282 FILLER_16_423
*1283 FILLER_16_435
*1284 FILLER_16_447
*1285 FILLER_16_45
*1286 FILLER_16_459
*1287 FILLER_16_471
*1288 FILLER_16_483
*1289 FILLER_16_488
*1290 FILLER_16_500
*1291 FILLER_16_512
*1292 FILLER_16_57
*1293 FILLER_16_69
*1294 FILLER_16_81
*1295 FILLER_16_93
*1296 FILLER_16_98
*1297 FILLER_17_102
*1298 FILLER_17_114
*1299 FILLER_17_126
*1300 FILLER_17_131
*1301 FILLER_17_143
*1302 FILLER_17_15
*1303 FILLER_17_155
*1304 FILLER_17_167
*1305 FILLER_17_179
*1306 FILLER_17_191
*1307 FILLER_17_196
*1308 FILLER_17_208
*1309 FILLER_17_220
*1310 FILLER_17_232
*1311 FILLER_17_244
*1312 FILLER_17_256
*1313 FILLER_17_261
*1314 FILLER_17_27
*1315 FILLER_17_273
*1316 FILLER_17_285
*1317 FILLER_17_297
*1318 FILLER_17_3
*1319 FILLER_17_309
*1320 FILLER_17_321
*1321 FILLER_17_326
*1322 FILLER_17_338
*1323 FILLER_17_350
*1324 FILLER_17_362
*1325 FILLER_17_374
*1326 FILLER_17_386
*1327 FILLER_17_39
*1328 FILLER_17_391
*1329 FILLER_17_403
*1330 FILLER_17_415
*1331 FILLER_17_427
*1332 FILLER_17_439
*1333 FILLER_17_451
*1334 FILLER_17_456
*1335 FILLER_17_468
*1336 FILLER_17_480
*1337 FILLER_17_492
*1338 FILLER_17_504
*1339 FILLER_17_51
*1340 FILLER_17_63
*1341 FILLER_17_66
*1342 FILLER_17_78
*1343 FILLER_17_90
*1344 FILLER_18_110
*1345 FILLER_18_122
*1346 FILLER_18_134
*1347 FILLER_18_146
*1348 FILLER_18_15
*1349 FILLER_18_158
*1350 FILLER_18_163
*1351 FILLER_18_175
*1352 FILLER_18_187
*1353 FILLER_18_199
*1354 FILLER_18_211
*1355 FILLER_18_223
*1356 FILLER_18_228
*1357 FILLER_18_240
*1358 FILLER_18_252
*1359 FILLER_18_264
*1360 FILLER_18_27
*1361 FILLER_18_276
*1362 FILLER_18_288
*1363 FILLER_18_293
*1364 FILLER_18_3
*1365 FILLER_18_305
*1366 FILLER_18_31
*1367 FILLER_18_317
*1368 FILLER_18_329
*1369 FILLER_18_33
*1370 FILLER_18_341
*1371 FILLER_18_353
*1372 FILLER_18_358
*1373 FILLER_18_370
*1374 FILLER_18_382
*1375 FILLER_18_394
*1376 FILLER_18_406
*1377 FILLER_18_418
*1378 FILLER_18_423
*1379 FILLER_18_435
*1380 FILLER_18_447
*1381 FILLER_18_45
*1382 FILLER_18_459
*1383 FILLER_18_471
*1384 FILLER_18_483
*1385 FILLER_18_488
*1386 FILLER_18_500
*1387 FILLER_18_512
*1388 FILLER_18_57
*1389 FILLER_18_69
*1390 FILLER_18_81
*1391 FILLER_18_93
*1392 FILLER_18_98
*1393 FILLER_19_102
*1394 FILLER_19_114
*1395 FILLER_19_126
*1396 FILLER_19_131
*1397 FILLER_19_143
*1398 FILLER_19_15
*1399 FILLER_19_155
*1400 FILLER_19_167
*1401 FILLER_19_179
*1402 FILLER_19_191
*1403 FILLER_19_196
*1404 FILLER_19_208
*1405 FILLER_19_220
*1406 FILLER_19_232
*1407 FILLER_19_244
*1408 FILLER_19_256
*1409 FILLER_19_261
*1410 FILLER_19_27
*1411 FILLER_19_273
*1412 FILLER_19_285
*1413 FILLER_19_297
*1414 FILLER_19_3
*1415 FILLER_19_309
*1416 FILLER_19_321
*1417 FILLER_19_326
*1418 FILLER_19_338
*1419 FILLER_19_350
*1420 FILLER_19_362
*1421 FILLER_19_374
*1422 FILLER_19_386
*1423 FILLER_19_39
*1424 FILLER_19_391
*1425 FILLER_19_403
*1426 FILLER_19_415
*1427 FILLER_19_427
*1428 FILLER_19_439
*1429 FILLER_19_451
*1430 FILLER_19_456
*1431 FILLER_19_468
*1432 FILLER_19_480
*1433 FILLER_19_492
*1434 FILLER_19_504
*1435 FILLER_19_51
*1436 FILLER_19_63
*1437 FILLER_19_66
*1438 FILLER_19_78
*1439 FILLER_19_90
*1440 FILLER_1_104
*1441 FILLER_1_111
*1442 FILLER_1_118
*1443 FILLER_1_125
*1444 FILLER_1_129
*1445 FILLER_1_13
*1446 FILLER_1_134
*1447 FILLER_1_141
*1448 FILLER_1_148
*1449 FILLER_1_155
*1450 FILLER_1_162
*1451 FILLER_1_169
*1452 FILLER_1_17
*1453 FILLER_1_176
*1454 FILLER_1_180
*1455 FILLER_1_184
*1456 FILLER_1_191
*1457 FILLER_1_196
*1458 FILLER_1_200
*1459 FILLER_1_204
*1460 FILLER_1_21
*1461 FILLER_1_229
*1462 FILLER_1_254
*1463 FILLER_1_28
*1464 FILLER_1_282
*1465 FILLER_1_307
*1466 FILLER_1_314
*1467 FILLER_1_321
*1468 FILLER_1_347
*1469 FILLER_1_35
*1470 FILLER_1_372
*1471 FILLER_1_379
*1472 FILLER_1_386
*1473 FILLER_1_394
*1474 FILLER_1_401
*1475 FILLER_1_408
*1476 FILLER_1_415
*1477 FILLER_1_42
*1478 FILLER_1_422
*1479 FILLER_1_429
*1480 FILLER_1_436
*1481 FILLER_1_443
*1482 FILLER_1_450
*1483 FILLER_1_454
*1484 FILLER_1_459
*1485 FILLER_1_466
*1486 FILLER_1_473
*1487 FILLER_1_480
*1488 FILLER_1_487
*1489 FILLER_1_49
*1490 FILLER_1_494
*1491 FILLER_1_501
*1492 FILLER_1_505
*1493 FILLER_1_512
*1494 FILLER_1_56
*1495 FILLER_1_6
*1496 FILLER_1_64
*1497 FILLER_1_69
*1498 FILLER_1_76
*1499 FILLER_1_83
*1500 FILLER_1_90
*1501 FILLER_1_97
*1502 FILLER_20_110
*1503 FILLER_20_122
*1504 FILLER_20_134
*1505 FILLER_20_146
*1506 FILLER_20_15
*1507 FILLER_20_158
*1508 FILLER_20_163
*1509 FILLER_20_175
*1510 FILLER_20_187
*1511 FILLER_20_199
*1512 FILLER_20_211
*1513 FILLER_20_223
*1514 FILLER_20_228
*1515 FILLER_20_240
*1516 FILLER_20_252
*1517 FILLER_20_264
*1518 FILLER_20_27
*1519 FILLER_20_276
*1520 FILLER_20_288
*1521 FILLER_20_293
*1522 FILLER_20_3
*1523 FILLER_20_305
*1524 FILLER_20_31
*1525 FILLER_20_317
*1526 FILLER_20_329
*1527 FILLER_20_33
*1528 FILLER_20_341
*1529 FILLER_20_353
*1530 FILLER_20_358
*1531 FILLER_20_370
*1532 FILLER_20_382
*1533 FILLER_20_394
*1534 FILLER_20_406
*1535 FILLER_20_418
*1536 FILLER_20_423
*1537 FILLER_20_435
*1538 FILLER_20_447
*1539 FILLER_20_45
*1540 FILLER_20_459
*1541 FILLER_20_471
*1542 FILLER_20_483
*1543 FILLER_20_488
*1544 FILLER_20_500
*1545 FILLER_20_512
*1546 FILLER_20_57
*1547 FILLER_20_69
*1548 FILLER_20_81
*1549 FILLER_20_93
*1550 FILLER_20_98
*1551 FILLER_21_102
*1552 FILLER_21_114
*1553 FILLER_21_126
*1554 FILLER_21_131
*1555 FILLER_21_143
*1556 FILLER_21_15
*1557 FILLER_21_155
*1558 FILLER_21_167
*1559 FILLER_21_179
*1560 FILLER_21_191
*1561 FILLER_21_196
*1562 FILLER_21_208
*1563 FILLER_21_220
*1564 FILLER_21_232
*1565 FILLER_21_244
*1566 FILLER_21_256
*1567 FILLER_21_261
*1568 FILLER_21_27
*1569 FILLER_21_273
*1570 FILLER_21_285
*1571 FILLER_21_297
*1572 FILLER_21_3
*1573 FILLER_21_309
*1574 FILLER_21_321
*1575 FILLER_21_326
*1576 FILLER_21_338
*1577 FILLER_21_350
*1578 FILLER_21_362
*1579 FILLER_21_374
*1580 FILLER_21_386
*1581 FILLER_21_39
*1582 FILLER_21_391
*1583 FILLER_21_403
*1584 FILLER_21_415
*1585 FILLER_21_427
*1586 FILLER_21_439
*1587 FILLER_21_451
*1588 FILLER_21_456
*1589 FILLER_21_468
*1590 FILLER_21_480
*1591 FILLER_21_492
*1592 FILLER_21_504
*1593 FILLER_21_51
*1594 FILLER_21_63
*1595 FILLER_21_66
*1596 FILLER_21_78
*1597 FILLER_21_90
*1598 FILLER_22_110
*1599 FILLER_22_122
*1600 FILLER_22_134
*1601 FILLER_22_146
*1602 FILLER_22_15
*1603 FILLER_22_158
*1604 FILLER_22_163
*1605 FILLER_22_175
*1606 FILLER_22_187
*1607 FILLER_22_199
*1608 FILLER_22_211
*1609 FILLER_22_223
*1610 FILLER_22_228
*1611 FILLER_22_240
*1612 FILLER_22_252
*1613 FILLER_22_264
*1614 FILLER_22_27
*1615 FILLER_22_276
*1616 FILLER_22_288
*1617 FILLER_22_293
*1618 FILLER_22_3
*1619 FILLER_22_305
*1620 FILLER_22_31
*1621 FILLER_22_317
*1622 FILLER_22_329
*1623 FILLER_22_33
*1624 FILLER_22_341
*1625 FILLER_22_353
*1626 FILLER_22_358
*1627 FILLER_22_370
*1628 FILLER_22_382
*1629 FILLER_22_394
*1630 FILLER_22_406
*1631 FILLER_22_418
*1632 FILLER_22_423
*1633 FILLER_22_435
*1634 FILLER_22_447
*1635 FILLER_22_45
*1636 FILLER_22_459
*1637 FILLER_22_471
*1638 FILLER_22_483
*1639 FILLER_22_488
*1640 FILLER_22_500
*1641 FILLER_22_512
*1642 FILLER_22_57
*1643 FILLER_22_69
*1644 FILLER_22_81
*1645 FILLER_22_93
*1646 FILLER_22_98
*1647 FILLER_23_102
*1648 FILLER_23_114
*1649 FILLER_23_126
*1650 FILLER_23_131
*1651 FILLER_23_143
*1652 FILLER_23_15
*1653 FILLER_23_155
*1654 FILLER_23_167
*1655 FILLER_23_179
*1656 FILLER_23_191
*1657 FILLER_23_196
*1658 FILLER_23_208
*1659 FILLER_23_220
*1660 FILLER_23_232
*1661 FILLER_23_244
*1662 FILLER_23_256
*1663 FILLER_23_261
*1664 FILLER_23_27
*1665 FILLER_23_273
*1666 FILLER_23_285
*1667 FILLER_23_297
*1668 FILLER_23_3
*1669 FILLER_23_309
*1670 FILLER_23_321
*1671 FILLER_23_326
*1672 FILLER_23_338
*1673 FILLER_23_350
*1674 FILLER_23_362
*1675 FILLER_23_374
*1676 FILLER_23_386
*1677 FILLER_23_39
*1678 FILLER_23_391
*1679 FILLER_23_403
*1680 FILLER_23_415
*1681 FILLER_23_427
*1682 FILLER_23_439
*1683 FILLER_23_451
*1684 FILLER_23_456
*1685 FILLER_23_468
*1686 FILLER_23_480
*1687 FILLER_23_492
*1688 FILLER_23_504
*1689 FILLER_23_51
*1690 FILLER_23_63
*1691 FILLER_23_66
*1692 FILLER_23_78
*1693 FILLER_23_90
*1694 FILLER_24_110
*1695 FILLER_24_122
*1696 FILLER_24_134
*1697 FILLER_24_146
*1698 FILLER_24_15
*1699 FILLER_24_158
*1700 FILLER_24_163
*1701 FILLER_24_175
*1702 FILLER_24_187
*1703 FILLER_24_199
*1704 FILLER_24_211
*1705 FILLER_24_223
*1706 FILLER_24_228
*1707 FILLER_24_240
*1708 FILLER_24_252
*1709 FILLER_24_264
*1710 FILLER_24_27
*1711 FILLER_24_276
*1712 FILLER_24_288
*1713 FILLER_24_293
*1714 FILLER_24_3
*1715 FILLER_24_305
*1716 FILLER_24_31
*1717 FILLER_24_317
*1718 FILLER_24_329