*SPEF "ieee 1481-1999"
*DESIGN "macro_10"
*DATE "11:11:11 Fri 11 11, 1111"
*VENDOR "OpenRCX"
*PROGRAM "Parallel Extraction"
*VERSION "1.0"
*DESIGN_FLOW "NAME_SCOPE LOCAL" "PIN_CAP NONE"
*DIVIDER /
*DELIMITER :
*BUS_DELIMITER []
*T_UNIT 1 NS
*C_UNIT 1 PF
*R_UNIT 1 OHM
*L_UNIT 1 HENRY

*NAME_MAP
*1 active
*2 analog_io[0]
*3 analog_io[10]
*4 analog_io[11]
*5 analog_io[12]
*6 analog_io[13]
*7 analog_io[14]
*8 analog_io[15]
*9 analog_io[16]
*10 analog_io[17]
*11 analog_io[18]
*12 analog_io[19]
*13 analog_io[1]
*14 analog_io[20]
*15 analog_io[21]
*16 analog_io[22]
*17 analog_io[23]
*18 analog_io[24]
*19 analog_io[25]
*20 analog_io[26]
*21 analog_io[27]
*22 analog_io[28]
*23 analog_io[2]
*24 analog_io[3]
*25 analog_io[4]
*26 analog_io[5]
*27 analog_io[6]
*28 analog_io[7]
*29 analog_io[8]
*30 analog_io[9]
*31 io_in[0]
*32 io_in[10]
*33 io_in[11]
*34 io_in[12]
*35 io_in[13]
*36 io_in[14]
*37 io_in[15]
*38 io_in[16]
*39 io_in[17]
*40 io_in[18]
*41 io_in[19]
*42 io_in[1]
*43 io_in[20]
*44 io_in[21]
*45 io_in[22]
*46 io_in[23]
*47 io_in[24]
*48 io_in[25]
*49 io_in[26]
*50 io_in[27]
*51 io_in[28]
*52 io_in[29]
*53 io_in[2]
*54 io_in[30]
*55 io_in[31]
*56 io_in[32]
*57 io_in[33]
*58 io_in[34]
*59 io_in[35]
*60 io_in[36]
*61 io_in[37]
*62 io_in[3]
*63 io_in[4]
*64 io_in[5]
*65 io_in[6]
*66 io_in[7]
*67 io_in[8]
*68 io_in[9]
*69 net234
*70 net244
*71 net245
*72 net246
*73 net247
*74 net248
*75 net249
*76 net250
*77 net251
*78 net252
*79 net253
*80 net235
*81 net254
*82 net255
*83 net256
*84 net257
*85 net258
*86 net259
*87 net260
*88 net261
*89 net37
*90 net38
*91 net236
*92 net39
*93 net40
*94 net41
*95 net42
*96 net43
*97 net44
*98 net45
*99 net46
*100 net237
*101 net238
*102 net239
*103 net240
*104 net241
*105 net242
*106 net243
*107 io_out[0]
*108 io_out[10]
*109 io_out[11]
*110 io_out[12]
*111 io_out[13]
*112 io_out[14]
*113 io_out[15]
*114 io_out[16]
*115 io_out[17]
*116 net50
*117 net51
*118 net47
*119 net52
*120 net53
*121 net54
*122 net55
*123 net56
*124 net57
*125 net58
*126 net59
*127 net60
*128 net61
*129 net48
*130 net62
*131 net63
*132 net64
*133 net65
*134 net66
*135 net67
*136 net68
*137 net69
*138 net49
*139 io_out[4]
*140 io_out[5]
*141 io_out[6]
*142 io_out[7]
*143 io_out[8]
*144 io_out[9]
*145 la_data_in[0]
*146 la_data_in[100]
*147 la_data_in[101]
*148 la_data_in[102]
*149 la_data_in[103]
*150 la_data_in[104]
*151 la_data_in[105]
*152 la_data_in[106]
*153 la_data_in[107]
*154 la_data_in[108]
*155 la_data_in[109]
*156 la_data_in[10]
*157 la_data_in[110]
*158 la_data_in[111]
*159 la_data_in[112]
*160 la_data_in[113]
*161 la_data_in[114]
*162 la_data_in[115]
*163 la_data_in[116]
*164 la_data_in[117]
*165 la_data_in[118]
*166 la_data_in[119]
*167 la_data_in[11]
*168 la_data_in[120]
*169 la_data_in[121]
*170 la_data_in[122]
*171 la_data_in[123]
*172 la_data_in[124]
*173 la_data_in[125]
*174 la_data_in[126]
*175 la_data_in[127]
*176 la_data_in[12]
*177 la_data_in[13]
*178 la_data_in[14]
*179 la_data_in[15]
*180 la_data_in[16]
*181 la_data_in[17]
*182 la_data_in[18]
*183 la_data_in[19]
*184 la_data_in[1]
*185 la_data_in[20]
*186 la_data_in[21]
*187 la_data_in[22]
*188 la_data_in[23]
*189 la_data_in[24]
*190 la_data_in[25]
*191 la_data_in[26]
*192 la_data_in[27]
*193 la_data_in[28]
*194 la_data_in[29]
*195 la_data_in[2]
*196 la_data_in[30]
*197 la_data_in[31]
*198 la_data_in[32]
*199 la_data_in[33]
*200 la_data_in[34]
*201 la_data_in[35]
*202 la_data_in[36]
*203 la_data_in[37]
*204 la_data_in[38]
*205 la_data_in[39]
*206 la_data_in[3]
*207 la_data_in[40]
*208 la_data_in[41]
*209 la_data_in[42]
*210 la_data_in[43]
*211 la_data_in[44]
*212 la_data_in[45]
*213 la_data_in[46]
*214 la_data_in[47]
*215 la_data_in[48]
*216 la_data_in[49]
*217 la_data_in[4]
*218 la_data_in[50]
*219 la_data_in[51]
*220 la_data_in[52]
*221 la_data_in[53]
*222 la_data_in[54]
*223 la_data_in[55]
*224 la_data_in[56]
*225 la_data_in[57]
*226 la_data_in[58]
*227 la_data_in[59]
*228 la_data_in[5]
*229 la_data_in[60]
*230 la_data_in[61]
*231 la_data_in[62]
*232 la_data_in[63]
*233 la_data_in[64]
*234 la_data_in[65]
*235 la_data_in[66]
*236 la_data_in[67]
*237 la_data_in[68]
*238 la_data_in[69]
*239 la_data_in[6]
*240 la_data_in[70]
*241 la_data_in[71]
*242 la_data_in[72]
*243 la_data_in[73]
*244 la_data_in[74]
*245 la_data_in[75]
*246 la_data_in[76]
*247 la_data_in[77]
*248 la_data_in[78]
*249 la_data_in[79]
*250 la_data_in[7]
*251 la_data_in[80]
*252 la_data_in[81]
*253 la_data_in[82]
*254 la_data_in[83]
*255 la_data_in[84]
*256 la_data_in[85]
*257 la_data_in[86]
*258 la_data_in[87]
*259 la_data_in[88]
*260 la_data_in[89]
*261 la_data_in[8]
*262 la_data_in[90]
*263 la_data_in[91]
*264 la_data_in[92]
*265 la_data_in[93]
*266 la_data_in[94]
*267 la_data_in[95]
*268 la_data_in[96]
*269 la_data_in[97]
*270 la_data_in[98]
*271 la_data_in[99]
*272 la_data_in[9]
*273 net70
*274 net138
*275 net139
*276 net140
*277 net141
*278 net142
*279 net143
*280 net144
*281 net145
*282 net146
*283 net147
*284 net80
*285 net148
*286 net149
*287 net150
*288 net151
*289 net152
*290 net153
*291 net154
*292 net155
*293 net156
*294 net157
*295 net81
*296 net158
*297 net159
*298 net160
*299 net161
*300 net162
*301 net163
*302 net164
*303 net165
*304 net82
*305 net83
*306 net84
*307 net85
*308 net86
*309 net87
*310 net88
*311 net89
*312 net71
*313 net90
*314 net91
*315 net92
*316 net93
*317 net94
*318 net95
*319 net96
*320 net97
*321 net98
*322 net99
*323 net72
*324 net100
*325 net101
*326 la_data_out[32]
*327 la_data_out[33]
*328 la_data_out[34]
*329 la_data_out[35]
*330 la_data_out[36]
*331 la_data_out[37]
*332 la_data_out[38]
*333 la_data_out[39]
*334 net73
*335 la_data_out[40]
*336 la_data_out[41]
*337 la_data_out[42]
*338 la_data_out[43]
*339 la_data_out[44]
*340 la_data_out[45]
*341 la_data_out[46]
*342 la_data_out[47]
*343 la_data_out[48]
*344 la_data_out[49]
*345 net74
*346 la_data_out[50]
*347 la_data_out[51]
*348 la_data_out[52]
*349 la_data_out[53]
*350 la_data_out[54]
*351 la_data_out[55]
*352 la_data_out[56]
*353 la_data_out[57]
*354 la_data_out[58]
*355 la_data_out[59]
*356 net75
*357 la_data_out[60]
*358 la_data_out[61]
*359 la_data_out[62]
*360 la_data_out[63]
*361 net102
*362 net103
*363 net104
*364 net105
*365 net106
*366 net107
*367 net76
*368 net108
*369 net109
*370 net110
*371 net111
*372 net112
*373 net113
*374 net114
*375 net115
*376 net116
*377 net117
*378 net77
*379 net118
*380 net119
*381 net120
*382 net121
*383 net122
*384 net123
*385 net124
*386 net125
*387 net126
*388 net127
*389 net78
*390 net128
*391 net129
*392 net130
*393 net131
*394 net132
*395 net133
*396 net134
*397 net135
*398 net136
*399 net137
*400 net79
*401 la_oenb[0]
*402 la_oenb[100]
*403 la_oenb[101]
*404 la_oenb[102]
*405 la_oenb[103]
*406 la_oenb[104]
*407 la_oenb[105]
*408 la_oenb[106]
*409 la_oenb[107]
*410 la_oenb[108]
*411 la_oenb[109]
*412 la_oenb[10]
*413 la_oenb[110]
*414 la_oenb[111]
*415 la_oenb[112]
*416 la_oenb[113]
*417 la_oenb[114]
*418 la_oenb[115]
*419 la_oenb[116]
*420 la_oenb[117]
*421 la_oenb[118]
*422 la_oenb[119]
*423 la_oenb[11]
*424 la_oenb[120]
*425 la_oenb[121]
*426 la_oenb[122]
*427 la_oenb[123]
*428 la_oenb[124]
*429 la_oenb[125]
*430 la_oenb[126]
*431 la_oenb[127]
*432 la_oenb[12]
*433 la_oenb[13]
*434 la_oenb[14]
*435 la_oenb[15]
*436 la_oenb[16]
*437 la_oenb[17]
*438 la_oenb[18]
*439 la_oenb[19]
*440 la_oenb[1]
*441 la_oenb[20]
*442 la_oenb[21]
*443 la_oenb[22]
*444 la_oenb[23]
*445 la_oenb[24]
*446 la_oenb[25]
*447 la_oenb[26]
*448 la_oenb[27]
*449 la_oenb[28]
*450 la_oenb[29]
*451 la_oenb[2]
*452 la_oenb[30]
*453 la_oenb[31]
*454 la_oenb[32]
*455 la_oenb[33]
*456 la_oenb[34]
*457 la_oenb[35]
*458 la_oenb[36]
*459 la_oenb[37]
*460 la_oenb[38]
*461 la_oenb[39]
*462 la_oenb[3]
*463 la_oenb[40]
*464 la_oenb[41]
*465 la_oenb[42]
*466 la_oenb[43]
*467 la_oenb[44]
*468 la_oenb[45]
*469 la_oenb[46]
*470 la_oenb[47]
*471 la_oenb[48]
*472 la_oenb[49]
*473 la_oenb[4]
*474 la_oenb[50]
*475 la_oenb[51]
*476 la_oenb[52]
*477 la_oenb[53]
*478 la_oenb[54]
*479 la_oenb[55]
*480 la_oenb[56]
*481 la_oenb[57]
*482 la_oenb[58]
*483 la_oenb[59]
*484 la_oenb[5]
*485 la_oenb[60]
*486 la_oenb[61]
*487 la_oenb[62]
*488 la_oenb[63]
*489 la_oenb[64]
*490 la_oenb[65]
*491 la_oenb[66]
*492 la_oenb[67]
*493 la_oenb[68]
*494 la_oenb[69]
*495 la_oenb[6]
*496 la_oenb[70]
*497 la_oenb[71]
*498 la_oenb[72]
*499 la_oenb[73]
*500 la_oenb[74]
*501 la_oenb[75]
*502 la_oenb[76]
*503 la_oenb[77]
*504 la_oenb[78]
*505 la_oenb[79]
*506 la_oenb[7]
*507 la_oenb[80]
*508 la_oenb[81]
*509 la_oenb[82]
*510 la_oenb[83]
*511 la_oenb[84]
*512 la_oenb[85]
*513 la_oenb[86]
*514 la_oenb[87]
*515 la_oenb[88]
*516 la_oenb[89]
*517 la_oenb[8]
*518 la_oenb[90]
*519 la_oenb[91]
*520 la_oenb[92]
*521 la_oenb[93]
*522 la_oenb[94]
*523 la_oenb[95]
*524 la_oenb[96]
*525 la_oenb[97]
*526 la_oenb[98]
*527 la_oenb[99]
*528 la_oenb[9]
*529 user_clock2
*530 net166
*531 net167
*532 net168
*535 wb_clk_i
*536 wb_rst_i
*537 net169
*538 wbs_adr_i[0]
*539 wbs_adr_i[10]
*540 wbs_adr_i[11]
*541 wbs_adr_i[12]
*542 wbs_adr_i[13]
*543 wbs_adr_i[14]
*544 wbs_adr_i[15]
*545 wbs_adr_i[16]
*546 wbs_adr_i[17]
*547 wbs_adr_i[18]
*548 wbs_adr_i[19]
*549 wbs_adr_i[1]
*550 wbs_adr_i[20]
*551 wbs_adr_i[21]
*552 wbs_adr_i[22]
*553 wbs_adr_i[23]
*554 wbs_adr_i[24]
*555 wbs_adr_i[25]
*556 wbs_adr_i[26]
*557 wbs_adr_i[27]
*558 wbs_adr_i[28]
*559 wbs_adr_i[29]
*560 wbs_adr_i[2]
*561 wbs_adr_i[30]
*562 wbs_adr_i[31]
*563 wbs_adr_i[3]
*564 wbs_adr_i[4]
*565 wbs_adr_i[5]
*566 wbs_adr_i[6]
*567 wbs_adr_i[7]
*568 wbs_adr_i[8]
*569 wbs_adr_i[9]
*570 wbs_cyc_i
*571 wbs_dat_i[0]
*572 wbs_dat_i[10]
*573 wbs_dat_i[11]
*574 wbs_dat_i[12]
*575 wbs_dat_i[13]
*576 wbs_dat_i[14]
*577 wbs_dat_i[15]
*578 wbs_dat_i[16]
*579 wbs_dat_i[17]
*580 wbs_dat_i[18]
*581 wbs_dat_i[19]
*582 wbs_dat_i[1]
*583 wbs_dat_i[20]
*584 wbs_dat_i[21]
*585 wbs_dat_i[22]
*586 wbs_dat_i[23]
*587 wbs_dat_i[24]
*588 wbs_dat_i[25]
*589 wbs_dat_i[26]
*590 wbs_dat_i[27]
*591 wbs_dat_i[28]
*592 wbs_dat_i[29]
*593 wbs_dat_i[2]
*594 wbs_dat_i[30]
*595 wbs_dat_i[31]
*596 wbs_dat_i[3]
*597 wbs_dat_i[4]
*598 wbs_dat_i[5]
*599 wbs_dat_i[6]
*600 wbs_dat_i[7]
*601 wbs_dat_i[8]
*602 wbs_dat_i[9]
*603 net170
*604 net180
*605 net181
*606 net182
*607 net183
*608 net184
*609 net185
*610 net186
*611 net187
*612 net188
*613 net189
*614 net171
*615 net190
*616 net191
*617 net192
*618 net193
*619 net194
*620 net195
*621 net196
*622 net197
*623 net198
*624 net199
*625 net172
*626 net200
*627 net201
*628 net173
*629 net174
*630 net175
*631 net176
*632 net177
*633 net178
*634 net179
*635 wbs_sel_i[0]
*636 wbs_sel_i[1]
*637 wbs_sel_i[2]
*638 wbs_sel_i[3]
*639 wbs_stb_i
*640 wbs_we_i
*641 _000_
*642 _001_
*643 _002_
*644 _003_
*645 _004_
*646 _005_
*647 _006_
*648 _007_
*649 _008_
*650 _009_
*651 _010_
*652 _011_
*653 _012_
*654 _013_
*655 _014_
*656 _015_
*657 _016_
*658 _017_
*659 _018_
*660 _019_
*661 _020_
*662 _021_
*663 _022_
*664 _023_
*665 _024_
*666 _025_
*667 _026_
*668 _027_
*669 _028_
*670 _029_
*671 _030_
*672 _031_
*673 _032_
*674 _033_
*675 _034_
*676 _035_
*677 _036_
*678 _037_
*679 _038_
*680 _039_
*681 _040_
*682 _041_
*683 _042_
*684 _043_
*685 _044_
*686 _045_
*687 _046_
*688 _047_
*689 _048_
*690 _049_
*691 _050_
*692 _051_
*693 _052_
*694 _053_
*695 _054_
*696 _055_
*697 _056_
*698 _057_
*699 _058_
*700 _059_
*701 _060_
*702 _061_
*703 _062_
*704 _063_
*705 _064_
*706 _065_
*707 _066_
*708 _067_
*709 _068_
*710 _069_
*711 _070_
*712 _071_
*713 _072_
*714 _073_
*715 _074_
*716 _075_
*717 _076_
*718 _077_
*719 _078_
*720 _079_
*721 _080_
*722 _081_
*723 _082_
*724 _083_
*725 _084_
*726 _085_
*727 _086_
*728 _087_
*729 _088_
*730 _089_
*731 _090_
*732 _091_
*733 _092_
*734 _093_
*735 _094_
*736 _095_
*737 _096_
*738 _097_
*739 _098_
*740 _099_
*741 _100_
*742 _101_
*743 _102_
*744 _103_
*745 _104_
*746 _105_
*747 _106_
*748 _107_
*749 _108_
*750 _109_
*751 _110_
*752 _111_
*753 _112_
*754 _113_
*755 _114_
*756 _115_
*757 _116_
*758 _117_
*759 _118_
*760 _119_
*761 _120_
*762 _121_
*763 _122_
*764 _123_
*765 _124_
*766 _125_
*767 _126_
*768 _127_
*769 _128_
*770 _129_
*771 _130_
*772 _131_
*773 _132_
*774 _133_
*775 _134_
*776 _135_
*777 _136_
*778 _137_
*779 net1
*780 net10
*781 net11
*782 net12
*783 net13
*784 net14
*785 net15
*786 net16
*787 net17
*788 net18
*789 net19
*790 net2
*791 net20
*792 net202
*793 net203
*794 net204
*795 net205
*796 net206
*797 net207
*798 net208
*799 net209
*800 net21
*801 net210
*802 net211
*803 net212
*804 net213
*805 net214
*806 net215
*807 net216
*808 net217
*809 net218
*810 net219
*811 net22
*812 net220
*813 net221
*814 net222
*815 net223
*816 net224
*817 net225
*818 net226
*819 net227
*820 net228
*821 net229
*822 net23
*823 net230
*824 net231
*825 net232
*826 net233
*827 net24
*828 net25
*829 net26
*830 net27
*831 net28
*832 net29
*833 net3
*834 net30
*835 net31
*836 net32
*837 net33
*838 net34
*839 net35
*840 net36
*841 net4
*842 net5
*843 net6
*844 net7
*845 net8
*846 net9
*847 ANTENNA__170__A
*848 ANTENNA__171__A
*849 ANTENNA__172__A
*850 ANTENNA__197__A
*851 ANTENNA__203__A
*852 ANTENNA__211__A_N
*853 ANTENNA__211__B
*854 ANTENNA__230__A
*855 ANTENNA__234__A_N
*856 ANTENNA__234__B
*857 ANTENNA__253__A
*858 ANTENNA__258__B1
*859 ANTENNA__259__A
*860 ANTENNA__260__B2
*861 ANTENNA__263__A
*862 ANTENNA__264__B2
*863 ANTENNA__267__A
*864 ANTENNA__270__A
*865 ANTENNA__275__A
*866 ANTENNA__276__A2
*867 ANTENNA__277__A2
*868 ANTENNA__281__A
*869 ANTENNA__282__A2
*870 ANTENNA__290__A1
*871 ANTENNA__291__A
*872 ANTENNA__294__B1
*873 ANTENNA__295__A1
*874 ANTENNA__311__A2
*875 ANTENNA__312__A2
*876 ANTENNA__321__C1
*877 ANTENNA_input10_A
*878 ANTENNA_input11_A
*879 ANTENNA_input12_A
*880 ANTENNA_input13_A
*881 ANTENNA_input14_A
*882 ANTENNA_input15_A
*883 ANTENNA_input16_A
*884 ANTENNA_input17_A
*885 ANTENNA_input18_A
*886 ANTENNA_input19_A
*887 ANTENNA_input1_A
*888 ANTENNA_input20_A
*889 ANTENNA_input21_A
*890 ANTENNA_input2_A
*891 ANTENNA_input3_A
*892 ANTENNA_input4_A
*893 ANTENNA_input5_A
*894 ANTENNA_input6_A
*895 ANTENNA_input7_A
*896 ANTENNA_input8_A
*897 ANTENNA_input9_A
*898 ANTENNA_output22_A
*899 ANTENNA_output31_A
*900 FILLER_0_103
*901 FILLER_0_109
*902 FILLER_0_116
*903 FILLER_0_124
*904 FILLER_0_13
*905 FILLER_0_130
*906 FILLER_0_137
*907 FILLER_0_145
*908 FILLER_0_151
*909 FILLER_0_158
*910 FILLER_0_166
*911 FILLER_0_169
*912 FILLER_0_178
*913 FILLER_0_185
*914 FILLER_0_190
*915 FILLER_0_199
*916 FILLER_0_206
*917 FILLER_0_213
*918 FILLER_0_220
*919 FILLER_0_227
*920 FILLER_0_232
*921 FILLER_0_240
*922 FILLER_0_248
*923 FILLER_0_25
*924 FILLER_0_253
*925 FILLER_0_261
*926 FILLER_0_269
*927 FILLER_0_274
*928 FILLER_0_282
*929 FILLER_0_286
*930 FILLER_0_290
*931 FILLER_0_298
*932 FILLER_0_305
*933 FILLER_0_311
*934 FILLER_0_319
*935 FILLER_0_32
*936 FILLER_0_326
*937 FILLER_0_334
*938 FILLER_0_340
*939 FILLER_0_347
*940 FILLER_0_355
*941 FILLER_0_361
*942 FILLER_0_368
*943 FILLER_0_376
*944 FILLER_0_382
*945 FILLER_0_389
*946 FILLER_0_397
*947 FILLER_0_40
*948 FILLER_0_403
*949 FILLER_0_410
*950 FILLER_0_418
*951 FILLER_0_424
*952 FILLER_0_431
*953 FILLER_0_439
*954 FILLER_0_445
*955 FILLER_0_452
*956 FILLER_0_46
*957 FILLER_0_460
*958 FILLER_0_466
*959 FILLER_0_473
*960 FILLER_0_481
*961 FILLER_0_487
*962 FILLER_0_494
*963 FILLER_0_500
*964 FILLER_0_505
*965 FILLER_0_512
*966 FILLER_0_53
*967 FILLER_0_6
*968 FILLER_0_61
*969 FILLER_0_67
*970 FILLER_0_74
*971 FILLER_0_82
*972 FILLER_0_88
*973 FILLER_0_95
*974 FILLER_10_101
*975 FILLER_10_108
*976 FILLER_10_120
*977 FILLER_10_132
*978 FILLER_10_144
*979 FILLER_10_15
*980 FILLER_10_151
*981 FILLER_10_163
*982 FILLER_10_175
*983 FILLER_10_187
*984 FILLER_10_194
*985 FILLER_10_206
*986 FILLER_10_218
*987 FILLER_10_22
*988 FILLER_10_230
*989 FILLER_10_237
*990 FILLER_10_249
*991 FILLER_10_261
*992 FILLER_10_273
*993 FILLER_10_280
*994 FILLER_10_288
*995 FILLER_10_3
*996 FILLER_10_312
*997 FILLER_10_320
*998 FILLER_10_323
*999 FILLER_10_335
*1000 FILLER_10_34
*1001 FILLER_10_347
*1002 FILLER_10_359
*1003 FILLER_10_366
*1004 FILLER_10_378
*1005 FILLER_10_390
*1006 FILLER_10_402
*1007 FILLER_10_409
*1008 FILLER_10_421
*1009 FILLER_10_433
*1010 FILLER_10_445
*1011 FILLER_10_452
*1012 FILLER_10_46
*1013 FILLER_10_464
*1014 FILLER_10_476
*1015 FILLER_10_488
*1016 FILLER_10_495
*1017 FILLER_10_507
*1018 FILLER_10_515
*1019 FILLER_10_58
*1020 FILLER_10_65
*1021 FILLER_10_77
*1022 FILLER_10_89
*1023 FILLER_11_111
*1024 FILLER_11_123
*1025 FILLER_11_130
*1026 FILLER_11_142
*1027 FILLER_11_15
*1028 FILLER_11_154
*1029 FILLER_11_166
*1030 FILLER_11_173
*1031 FILLER_11_185
*1032 FILLER_11_197
*1033 FILLER_11_209
*1034 FILLER_11_216
*1035 FILLER_11_228
*1036 FILLER_11_240
*1037 FILLER_11_252
*1038 FILLER_11_259
*1039 FILLER_11_27
*1040 FILLER_11_271
*1041 FILLER_11_283
*1042 FILLER_11_295
*1043 FILLER_11_3
*1044 FILLER_11_302
*1045 FILLER_11_314
*1046 FILLER_11_326
*1047 FILLER_11_338
*1048 FILLER_11_345
*1049 FILLER_11_357
*1050 FILLER_11_369
*1051 FILLER_11_381
*1052 FILLER_11_388
*1053 FILLER_11_39
*1054 FILLER_11_400
*1055 FILLER_11_412
*1056 FILLER_11_424
*1057 FILLER_11_431
*1058 FILLER_11_44
*1059 FILLER_11_443
*1060 FILLER_11_455
*1061 FILLER_11_467
*1062 FILLER_11_474
*1063 FILLER_11_486
*1064 FILLER_11_498
*1065 FILLER_11_510
*1066 FILLER_11_56
*1067 FILLER_11_68
*1068 FILLER_11_80
*1069 FILLER_11_87
*1070 FILLER_11_99
*1071 FILLER_12_101
*1072 FILLER_12_108
*1073 FILLER_12_120
*1074 FILLER_12_132
*1075 FILLER_12_144
*1076 FILLER_12_15
*1077 FILLER_12_151
*1078 FILLER_12_163
*1079 FILLER_12_175
*1080 FILLER_12_187
*1081 FILLER_12_194
*1082 FILLER_12_206
*1083 FILLER_12_218
*1084 FILLER_12_22
*1085 FILLER_12_230
*1086 FILLER_12_237
*1087 FILLER_12_249
*1088 FILLER_12_261
*1089 FILLER_12_273
*1090 FILLER_12_280
*1091 FILLER_12_292
*1092 FILLER_12_3
*1093 FILLER_12_304
*1094 FILLER_12_316
*1095 FILLER_12_323
*1096 FILLER_12_335
*1097 FILLER_12_34
*1098 FILLER_12_347
*1099 FILLER_12_359
*1100 FILLER_12_366
*1101 FILLER_12_378
*1102 FILLER_12_390
*1103 FILLER_12_402
*1104 FILLER_12_409
*1105 FILLER_12_421
*1106 FILLER_12_433
*1107 FILLER_12_445
*1108 FILLER_12_452
*1109 FILLER_12_46
*1110 FILLER_12_464
*1111 FILLER_12_476
*1112 FILLER_12_488
*1113 FILLER_12_495
*1114 FILLER_12_507
*1115 FILLER_12_515
*1116 FILLER_12_58
*1117 FILLER_12_65
*1118 FILLER_12_77
*1119 FILLER_12_89
*1120 FILLER_13_111
*1121 FILLER_13_123
*1122 FILLER_13_130
*1123 FILLER_13_142
*1124 FILLER_13_15
*1125 FILLER_13_154
*1126 FILLER_13_166
*1127 FILLER_13_173
*1128 FILLER_13_185
*1129 FILLER_13_197
*1130 FILLER_13_209
*1131 FILLER_13_216
*1132 FILLER_13_228
*1133 FILLER_13_240
*1134 FILLER_13_252
*1135 FILLER_13_259
*1136 FILLER_13_27
*1137 FILLER_13_271
*1138 FILLER_13_283
*1139 FILLER_13_295
*1140 FILLER_13_3
*1141 FILLER_13_302
*1142 FILLER_13_314
*1143 FILLER_13_326
*1144 FILLER_13_338
*1145 FILLER_13_345
*1146 FILLER_13_357
*1147 FILLER_13_369
*1148 FILLER_13_381
*1149 FILLER_13_388
*1150 FILLER_13_39
*1151 FILLER_13_400
*1152 FILLER_13_412
*1153 FILLER_13_424
*1154 FILLER_13_431
*1155 FILLER_13_44
*1156 FILLER_13_443
*1157 FILLER_13_455
*1158 FILLER_13_467
*1159 FILLER_13_474
*1160 FILLER_13_486
*1161 FILLER_13_498
*1162 FILLER_13_510
*1163 FILLER_13_56
*1164 FILLER_13_68
*1165 FILLER_13_80
*1166 FILLER_13_87
*1167 FILLER_13_99
*1168 FILLER_14_101
*1169 FILLER_14_108
*1170 FILLER_14_120
*1171 FILLER_14_132
*1172 FILLER_14_144
*1173 FILLER_14_15
*1174 FILLER_14_151
*1175 FILLER_14_163
*1176 FILLER_14_175
*1177 FILLER_14_187
*1178 FILLER_14_194
*1179 FILLER_14_206
*1180 FILLER_14_218
*1181 FILLER_14_22
*1182 FILLER_14_230
*1183 FILLER_14_237
*1184 FILLER_14_249
*1185 FILLER_14_261
*1186 FILLER_14_273
*1187 FILLER_14_280
*1188 FILLER_14_292
*1189 FILLER_14_3
*1190 FILLER_14_304
*1191 FILLER_14_316
*1192 FILLER_14_323
*1193 FILLER_14_335
*1194 FILLER_14_34
*1195 FILLER_14_347
*1196 FILLER_14_359
*1197 FILLER_14_366
*1198 FILLER_14_378
*1199 FILLER_14_390
*1200 FILLER_14_402
*1201 FILLER_14_409
*1202 FILLER_14_421
*1203 FILLER_14_433
*1204 FILLER_14_445
*1205 FILLER_14_452
*1206 FILLER_14_46
*1207 FILLER_14_464
*1208 FILLER_14_476
*1209 FILLER_14_488
*1210 FILLER_14_495
*1211 FILLER_14_507
*1212 FILLER_14_515
*1213 FILLER_14_58
*1214 FILLER_14_65
*1215 FILLER_14_77
*1216 FILLER_14_89
*1217 FILLER_15_111
*1218 FILLER_15_123
*1219 FILLER_15_130
*1220 FILLER_15_142
*1221 FILLER_15_15
*1222 FILLER_15_154
*1223 FILLER_15_166
*1224 FILLER_15_173
*1225 FILLER_15_185
*1226 FILLER_15_197
*1227 FILLER_15_209
*1228 FILLER_15_216
*1229 FILLER_15_228
*1230 FILLER_15_240
*1231 FILLER_15_252
*1232 FILLER_15_259
*1233 FILLER_15_27
*1234 FILLER_15_271
*1235 FILLER_15_283
*1236 FILLER_15_295
*1237 FILLER_15_3
*1238 FILLER_15_302
*1239 FILLER_15_314
*1240 FILLER_15_326
*1241 FILLER_15_338
*1242 FILLER_15_345
*1243 FILLER_15_357
*1244 FILLER_15_369
*1245 FILLER_15_381
*1246 FILLER_15_388
*1247 FILLER_15_39
*1248 FILLER_15_400
*1249 FILLER_15_412
*1250 FILLER_15_424
*1251 FILLER_15_431
*1252 FILLER_15_44
*1253 FILLER_15_443
*1254 FILLER_15_455
*1255 FILLER_15_467
*1256 FILLER_15_474
*1257 FILLER_15_486
*1258 FILLER_15_498
*1259 FILLER_15_510
*1260 FILLER_15_56
*1261 FILLER_15_68
*1262 FILLER_15_80
*1263 FILLER_15_87
*1264 FILLER_15_99
*1265 FILLER_16_101
*1266 FILLER_16_108
*1267 FILLER_16_120
*1268 FILLER_16_132
*1269 FILLER_16_144
*1270 FILLER_16_15
*1271 FILLER_16_151
*1272 FILLER_16_163
*1273 FILLER_16_175
*1274 FILLER_16_187
*1275 FILLER_16_194
*1276 FILLER_16_206
*1277 FILLER_16_218
*1278 FILLER_16_22
*1279 FILLER_16_230
*1280 FILLER_16_237
*1281 FILLER_16_249
*1282 FILLER_16_261
*1283 FILLER_16_273
*1284 FILLER_16_280
*1285 FILLER_16_292
*1286 FILLER_16_3
*1287 FILLER_16_304
*1288 FILLER_16_316
*1289 FILLER_16_323
*1290 FILLER_16_335
*1291 FILLER_16_34
*1292 FILLER_16_347
*1293 FILLER_16_359
*1294 FILLER_16_366
*1295 FILLER_16_378
*1296 FILLER_16_390
*1297 FILLER_16_402
*1298 FILLER_16_409
*1299 FILLER_16_421
*1300 FILLER_16_433
*1301 FILLER_16_445
*1302 FILLER_16_452
*1303 FILLER_16_46
*1304 FILLER_16_464
*1305 FILLER_16_476
*1306 FILLER_16_488
*1307 FILLER_16_495
*1308 FILLER_16_507
*1309 FILLER_16_515
*1310 FILLER_16_58
*1311 FILLER_16_65
*1312 FILLER_16_77
*1313 FILLER_16_89
*1314 FILLER_17_111
*1315 FILLER_17_123
*1316 FILLER_17_130
*1317 FILLER_17_142
*1318 FILLER_17_15
*1319 FILLER_17_154
*1320 FILLER_17_166
*1321 FILLER_17_173
*1322 FILLER_17_185
*1323 FILLER_17_197
*1324 FILLER_17_209
*1325 FILLER_17_216
*1326 FILLER_17_228
*1327 FILLER_17_240
*1328 FILLER_17_252
*1329 FILLER_17_259
*1330 FILLER_17_27
*1331 FILLER_17_271
*1332 FILLER_17_283
*1333 FILLER_17_295
*1334 FILLER_17_3
*1335 FILLER_17_302
*1336 FILLER_17_314
*1337 FILLER_17_326
*1338 FILLER_17_338
*1339 FILLER_17_345
*1340 FILLER_17_357
*1341 FILLER_17_369
*1342 FILLER_17_381
*1343 FILLER_17_388
*1344 FILLER_17_39
*1345 FILLER_17_400
*1346 FILLER_17_412
*1347 FILLER_17_424
*1348 FILLER_17_431
*1349 FILLER_17_44
*1350 FILLER_17_443
*1351 FILLER_17_455
*1352 FILLER_17_467
*1353 FILLER_17_474
*1354 FILLER_17_486
*1355 FILLER_17_498
*1356 FILLER_17_510
*1357 FILLER_17_56
*1358 FILLER_17_68
*1359 FILLER_17_80
*1360 FILLER_17_87
*1361 FILLER_17_99
*1362 FILLER_18_101
*1363 FILLER_18_108
*1364 FILLER_18_120
*1365 FILLER_18_132
*1366 FILLER_18_144
*1367 FILLER_18_15
*1368 FILLER_18_151
*1369 FILLER_18_163
*1370 FILLER_18_175
*1371 FILLER_18_187
*1372 FILLER_18_194
*1373 FILLER_18_206
*1374 FILLER_18_218
*1375 FILLER_18_22
*1376 FILLER_18_230
*1377 FILLER_18_237
*1378 FILLER_18_249
*1379 FILLER_18_261
*1380 FILLER_18_273
*1381 FILLER_18_280
*1382 FILLER_18_292
*1383 FILLER_18_3
*1384 FILLER_18_304
*1385 FILLER_18_316
*1386 FILLER_18_323
*1387 FILLER_18_335
*1388 FILLER_18_34
*1389 FILLER_18_347
*1390 FILLER_18_359
*1391 FILLER_18_366
*1392 FILLER_18_378
*1393 FILLER_18_390
*1394 FILLER_18_402
*1395 FILLER_18_409
*1396 FILLER_18_421
*1397 FILLER_18_433
*1398 FILLER_18_445
*1399 FILLER_18_452
*1400 FILLER_18_46
*1401 FILLER_18_464
*1402 FILLER_18_476
*1403 FILLER_18_488
*1404 FILLER_18_495
*1405 FILLER_18_507
*1406 FILLER_18_515
*1407 FILLER_18_58
*1408 FILLER_18_65
*1409 FILLER_18_77
*1410 FILLER_18_89
*1411 FILLER_19_111
*1412 FILLER_19_123
*1413 FILLER_19_130
*1414 FILLER_19_142
*1415 FILLER_19_15
*1416 FILLER_19_154
*1417 FILLER_19_166
*1418 FILLER_19_173
*1419 FILLER_19_185
*1420 FILLER_19_197
*1421 FILLER_19_209
*1422 FILLER_19_216
*1423 FILLER_19_228
*1424 FILLER_19_240
*1425 FILLER_19_252
*1426 FILLER_19_259
*1427 FILLER_19_27
*1428 FILLER_19_271
*1429 FILLER_19_283
*1430 FILLER_19_295
*1431 FILLER_19_3
*1432 FILLER_19_302
*1433 FILLER_19_314
*1434 FILLER_19_326
*1435 FILLER_19_338
*1436 FILLER_19_345
*1437 FILLER_19_357
*1438 FILLER_19_369
*1439 FILLER_19_381
*1440 FILLER_19_388
*1441 FILLER_19_39
*1442 FILLER_19_400
*1443 FILLER_19_412
*1444 FILLER_19_424
*1445 FILLER_19_431
*1446 FILLER_19_44
*1447 FILLER_19_443
*1448 FILLER_19_455
*1449 FILLER_19_467
*1450 FILLER_19_474
*1451 FILLER_19_486
*1452 FILLER_19_498
*1453 FILLER_19_510
*1454 FILLER_19_56
*1455 FILLER_19_68
*1456 FILLER_19_80
*1457 FILLER_19_87
*1458 FILLER_19_99
*1459 FILLER_1_104
*1460 FILLER_1_113
*1461 FILLER_1_120
*1462 FILLER_1_128
*1463 FILLER_1_13
*1464 FILLER_1_133
*1465 FILLER_1_140
*1466 FILLER_1_147
*1467 FILLER_1_154
*1468 FILLER_1_161
*1469 FILLER_1_168
*1470 FILLER_1_173
*1471 FILLER_1_179
*1472 FILLER_1_186
*1473 FILLER_1_20
*1474 FILLER_1_211
*1475 FILLER_1_219
*1476 FILLER_1_244
*1477 FILLER_1_250
*1478 FILLER_1_254
*1479 FILLER_1_27
*1480 FILLER_1_280
*1481 FILLER_1_287
*1482 FILLER_1_294
*1483 FILLER_1_300
*1484 FILLER_1_323
*1485 FILLER_1_330
*1486 FILLER_1_337
*1487 FILLER_1_34
*1488 FILLER_1_343
*1489 FILLER_1_366
*1490 FILLER_1_373
*1491 FILLER_1_380
*1492 FILLER_1_386
*1493 FILLER_1_391
*1494 FILLER_1_398
*1495 FILLER_1_405
*1496 FILLER_1_412
*1497 FILLER_1_419
*1498 FILLER_1_42
*1499 FILLER_1_426
*1500 FILLER_1_434
*1501 FILLER_1_441
*1502 FILLER_1_448
*1503 FILLER_1_455
*1504 FILLER_1_462
*1505 FILLER_1_469
*1506 FILLER_1_47
*1507 FILLER_1_477
*1508 FILLER_1_484
*1509 FILLER_1_491
*1510 FILLER_1_498
*1511 FILLER_1_505
*1512 FILLER_1_512
*1513 FILLER_1_54
*1514 FILLER_1_6
*1515 FILLER_1_61
*1516 FILLER_1_68
*1517 FILLER_1_75
*1518 FILLER_1_82
*1519 FILLER_1_90
*1520 FILLER_1_97
*1521 FILLER_20_101
*1522 FILLER_20_108
*1523 FILLER_20_120
*1524 FILLER_20_132
*1525 FILLER_20_144
*1526 FILLER_20_15
*1527 FILLER_20_151
*1528 FILLER_20_163
*1529 FILLER_20_175
*1530 FILLER_20_187
*1531 FILLER_20_194
*1532 FILLER_20_206
*1533 FILLER_20_218
*1534 FILLER_20_22
*1535 FILLER_20_230
*1536 FILLER_20_237
*1537 FILLER_20_249
*1538 FILLER_20_261
*1539 FILLER_20_273
*1540 FILLER_20_280
*1541 FILLER_20_292
*1542 FILLER_20_3
*1543 FILLER_20_304
*1544 FILLER_20_316
*1545 FILLER_20_323
*1546 FILLER_20_335
*1547 FILLER_20_34
*1548 FILLER_20_347
*1549 FILLER_20_359
*1550 FILLER_20_366
*1551 FILLER_20_378
*1552 FILLER_20_390
*1553 FILLER_20_402
*1554 FILLER_20_409
*1555 FILLER_20_421
*1556 FILLER_20_433
*1557 FILLER_20_445
*1558 FILLER_20_452
*1559 FILLER_20_46
*1560 FILLER_20_464
*1561 FILLER_20_476
*1562 FILLER_20_488
*1563 FILLER_20_495
*1564 FILLER_20_507
*1565 FILLER_20_515
*1566 FILLER_20_58
*1567 FILLER_20_65
*1568 FILLER_20_77
*1569 FILLER_20_89
*1570 FILLER_21_111
*1571 FILLER_21_123
*1572 FILLER_21_130
*1573 FILLER_21_142
*1574 FILLER_21_15
*1575 FILLER_21_154
*1576 FILLER_21_166
*1577 FILLER_21_173
*1578 FILLER_21_185
*1579 FILLER_21_197
*1580 FILLER_21_209
*1581 FILLER_21_216
*1582 FILLER_21_228
*1583 FILLER_21_240
*1584 FILLER_21_252
*1585 FILLER_21_259
*1586 FILLER_21_27
*1587 FILLER_21_271
*1588 FILLER_21_283
*1589 FILLER_21_295
*1590 FILLER_21_3
*1591 FILLER_21_302
*1592 FILLER_21_314
*1593 FILLER_21_326
*1594 FILLER_21_338
*1595 FILLER_21_345
*1596 FILLER_21_357
*1597 FILLER_21_369
*1598 FILLER_21_381
*1599 FILLER_21_388
*1600 FILLER_21_39
*1601 FILLER_21_400
*1602 FILLER_21_412
*1603 FILLER_21_424
*1604 FILLER_21_431
*1605 FILLER_21_44
*1606 FILLER_21_443
*1607 FILLER_21_455
*1608 FILLER_21_467
*1609 FILLER_21_474
*1610 FILLER_21_486
*1611 FILLER_21_498
*1612 FILLER_21_510
*1613 FILLER_21_56
*1614 FILLER_21_68
*1615 FILLER_21_80
*1616 FILLER_21_87
*1617 FILLER_21_99
*1618 FILLER_22_101
*1619 FILLER_22_108
*1620 FILLER_22_120
*1621 FILLER_22_132
*1622 FILLER_22_144
*1623 FILLER_22_15
*1624 FILLER_22_151
*1625 FILLER_22_163
*1626 FILLER_22_175
*1627 FILLER_22_187
*1628 FILLER_22_194
*1629 FILLER_22_206
*1630 FILLER_22_218
*1631 FILLER_22_22
*1632 FILLER_22_230
*1633 FILLER_22_237
*1634 FILLER_22_249
*1635 FILLER_22_261
*1636 FILLER_22_273
*1637 FILLER_22_280
*1638 FILLER_22_292
*1639 FILLER_22_3
*1640 FILLER_22_304
*1641 FILLER_22_316
*1642 FILLER_22_323
*1643 FILLER_22_335
*1644 FILLER_22_34
*1645 FILLER_22_347
*1646 FILLER_22_359
*1647 FILLER_22_366
*1648 FILLER_22_378
*1649 FILLER_22_390
*1650 FILLER_22_402
*1651 FILLER_22_409
*1652 FILLER_22_421
*1653 FILLER_22_433
*1654 FILLER_22_445
*1655 FILLER_22_452
*1656 FILLER_22_46
*1657 FILLER_22_464
*1658 FILLER_22_476
*1659 FILLER_22_488
*1660 FILLER_22_495
*1661 FILLER_22_507
*1662 FILLER_22_515
*1663 FILLER_22_58
*1664 FILLER_22_65
*1665 FILLER_22_77
*1666 FILLER_22_89
*1667 FILLER_23_111
*1668 FILLER_23_123
*1669 FILLER_23_130
*1670 FILLER_23_142
*1671 FILLER_23_15
*1672 FILLER_23_154
*1673 FILLER_23_166
*1674 FILLER_23_173
*1675 FILLER_23_185
*1676 FILLER_23_197
*1677 FILLER_23_209
*1678 FILLER_23_216
*1679 FILLER_23_228
*1680 FILLER_23_240
*1681 FILLER_23_252
*1682 FILLER_23_259
*1683 FILLER_23_27
*1684 FILLER_23_271
*1685 FILLER_23_283
*1686 FILLER_23_295
*1687 FILLER_23_3
*1688 FILLER_23_302
*1689 FILLER_23_314
*1690 FILLER_23_326
*1691 FILLER_23_338
*1692 FILLER_23_345
*1693 FILLER_23_357
*1694 FILLER_23_369
*1695 FILLER_23_381
*1696 FILLER_23_388
*1697 FILLER_23_39
*1698 FILLER_23_400
*1699 FILLER_23_412
*1700 FILLER_23_424
*1701 FILLER_23_431
*1702 FILLER_23_44
*1703 FILLER_23_443
*1704 FILLER_23_455
*1705 FILLER_23_467
*1706 FILLER_23_474
*1707 FILLER_23_486
*1708 FILLER_23_498
*1709 FILLER_23_510
*1710 FILLER_23_56
*1711 FILLER_23_68
*1712 FILLER_23_80
*1713 FILLER_23_87
*1714 FILLER_23_99
*1715 FILLER_24_101
*1716 FILLER_24_108
*1717 FILLER_24_120