*SPEF "ieee 1481-1999"
*DESIGN "macro_four"
*DATE "11:11:11 Fri 11 11, 1111"
*VENDOR "OpenRCX"
*PROGRAM "Parallel Extraction"
*VERSION "1.0"
*DESIGN_FLOW "NAME_SCOPE LOCAL" "PIN_CAP NONE"
*DIVIDER /
*DELIMITER :
*BUS_DELIMITER []
*T_UNIT 1 NS
*C_UNIT 1 PF
*R_UNIT 1 OHM
*L_UNIT 1 HENRY

*NAME_MAP
*1 analog_io[0]
*2 analog_io[10]
*3 analog_io[11]
*4 analog_io[12]
*5 analog_io[13]
*6 analog_io[14]
*7 analog_io[15]
*8 analog_io[16]
*9 analog_io[17]
*10 analog_io[18]
*11 analog_io[19]
*12 analog_io[1]
*13 analog_io[20]
*14 analog_io[21]
*15 analog_io[22]
*16 analog_io[23]
*17 analog_io[24]
*18 analog_io[25]
*19 analog_io[26]
*20 analog_io[27]
*21 analog_io[28]
*22 analog_io[2]
*23 analog_io[3]
*24 analog_io[4]
*25 analog_io[5]
*26 analog_io[6]
*27 analog_io[7]
*28 analog_io[8]
*29 analog_io[9]
*30 io_in[0]
*31 io_in[10]
*32 io_in[11]
*33 io_in[12]
*34 io_in[13]
*35 io_in[14]
*36 io_in[15]
*37 io_in[16]
*38 io_in[17]
*39 io_in[18]
*40 io_in[19]
*41 io_in[1]
*42 io_in[20]
*43 io_in[21]
*44 io_in[22]
*45 io_in[23]
*46 io_in[24]
*47 io_in[25]
*48 io_in[26]
*49 io_in[27]
*50 io_in[28]
*51 io_in[29]
*52 io_in[2]
*53 io_in[30]
*54 io_in[31]
*55 io_in[32]
*56 io_in[33]
*57 io_in[34]
*58 io_in[35]
*59 io_in[36]
*60 io_in[37]
*61 io_in[3]
*62 io_in[4]
*63 io_in[5]
*64 io_in[6]
*65 io_in[7]
*66 io_in[8]
*67 io_in[9]
*68 net197
*69 net207
*70 net208
*71 net209
*72 net210
*73 net211
*74 net212
*75 net213
*76 net214
*77 net215
*78 net216
*79 net198
*80 net217
*81 net218
*82 net219
*83 net220
*84 net221
*85 net222
*86 net223
*87 net224
*88 net225
*89 net226
*90 net199
*91 net227
*92 net228
*93 net229
*94 net230
*95 net231
*96 net232
*97 net233
*98 net234
*99 net200
*100 net201
*101 net202
*102 net203
*103 net204
*104 net205
*105 net206
*106 io_out[0]
*107 io_out[10]
*108 io_out[11]
*109 io_out[12]
*110 io_out[13]
*111 io_out[14]
*112 io_out[15]
*113 io_out[16]
*114 io_out[17]
*115 io_out[18]
*116 io_out[19]
*117 io_out[1]
*118 io_out[20]
*119 io_out[21]
*120 io_out[22]
*121 io_out[23]
*122 io_out[24]
*123 io_out[25]
*124 io_out[26]
*125 io_out[27]
*126 io_out[28]
*127 io_out[29]
*128 io_out[2]
*129 io_out[30]
*130 io_out[31]
*131 io_out[32]
*132 io_out[33]
*133 io_out[34]
*134 io_out[35]
*135 io_out[36]
*136 io_out[37]
*137 io_out[3]
*138 io_out[4]
*139 io_out[5]
*140 io_out[6]
*141 io_out[7]
*142 io_out[8]
*143 io_out[9]
*144 la_data_in[0]
*145 la_data_in[100]
*146 la_data_in[101]
*147 la_data_in[102]
*148 la_data_in[103]
*149 la_data_in[104]
*150 la_data_in[105]
*151 la_data_in[106]
*152 la_data_in[107]
*153 la_data_in[108]
*154 la_data_in[109]
*155 la_data_in[10]
*156 la_data_in[110]
*157 la_data_in[111]
*158 la_data_in[112]
*159 la_data_in[113]
*160 la_data_in[114]
*161 la_data_in[115]
*162 la_data_in[116]
*163 la_data_in[117]
*164 la_data_in[118]
*165 la_data_in[119]
*166 la_data_in[11]
*167 la_data_in[120]
*168 la_data_in[121]
*169 la_data_in[122]
*170 la_data_in[123]
*171 la_data_in[124]
*172 la_data_in[125]
*173 la_data_in[126]
*174 la_data_in[127]
*175 la_data_in[12]
*176 la_data_in[13]
*177 la_data_in[14]
*178 la_data_in[15]
*179 la_data_in[16]
*180 la_data_in[17]
*181 la_data_in[18]
*182 la_data_in[19]
*183 la_data_in[1]
*184 la_data_in[20]
*185 la_data_in[21]
*186 la_data_in[22]
*187 la_data_in[23]
*188 la_data_in[24]
*189 la_data_in[25]
*190 la_data_in[26]
*191 la_data_in[27]
*192 la_data_in[28]
*193 la_data_in[29]
*194 la_data_in[2]
*195 la_data_in[30]
*196 la_data_in[31]
*197 la_data_in[32]
*198 la_data_in[33]
*199 la_data_in[34]
*200 la_data_in[35]
*201 la_data_in[36]
*202 la_data_in[37]
*203 la_data_in[38]
*204 la_data_in[39]
*205 la_data_in[3]
*206 la_data_in[40]
*207 la_data_in[41]
*208 la_data_in[42]
*209 la_data_in[43]
*210 la_data_in[44]
*211 la_data_in[45]
*212 la_data_in[46]
*213 la_data_in[47]
*214 la_data_in[48]
*215 la_data_in[49]
*216 la_data_in[4]
*217 la_data_in[50]
*218 la_data_in[51]
*219 la_data_in[52]
*220 la_data_in[53]
*221 la_data_in[54]
*222 la_data_in[55]
*223 la_data_in[56]
*224 la_data_in[57]
*225 la_data_in[58]
*226 la_data_in[59]
*227 la_data_in[5]
*228 la_data_in[60]
*229 la_data_in[61]
*230 la_data_in[62]
*231 la_data_in[63]
*232 la_data_in[64]
*233 la_data_in[65]
*234 la_data_in[66]
*235 la_data_in[67]
*236 la_data_in[68]
*237 la_data_in[69]
*238 la_data_in[6]
*239 la_data_in[70]
*240 la_data_in[71]
*241 la_data_in[72]
*242 la_data_in[73]
*243 la_data_in[74]
*244 la_data_in[75]
*245 la_data_in[76]
*246 la_data_in[77]
*247 la_data_in[78]
*248 la_data_in[79]
*249 la_data_in[7]
*250 la_data_in[80]
*251 la_data_in[81]
*252 la_data_in[82]
*253 la_data_in[83]
*254 la_data_in[84]
*255 la_data_in[85]
*256 la_data_in[86]
*257 la_data_in[87]
*258 la_data_in[88]
*259 la_data_in[89]
*260 la_data_in[8]
*261 la_data_in[90]
*262 la_data_in[91]
*263 la_data_in[92]
*264 la_data_in[93]
*265 la_data_in[94]
*266 la_data_in[95]
*267 la_data_in[96]
*268 la_data_in[97]
*269 la_data_in[98]
*270 la_data_in[99]
*271 la_data_in[9]
*272 net235
*273 net110
*274 net111
*275 net112
*276 net113
*277 net114
*278 net115
*279 net116
*280 net117
*281 net118
*282 net119
*283 net245
*284 net120
*285 net121
*286 net122
*287 net123
*288 net124
*289 net125
*290 net126
*291 net127
*292 net128
*293 net129
*294 net21
*295 net130
*296 net131
*297 net132
*298 net133
*299 net134
*300 net135
*301 net136
*302 net137
*303 net22
*304 net23
*305 net24
*306 net25
*307 net26
*308 net27
*309 net28
*310 net29
*311 net236
*312 net30
*313 net31
*314 net32
*315 net33
*316 net34
*317 net35
*318 net36
*319 net37
*320 net38
*321 net39
*322 net237
*323 net40
*324 net41
*325 net42
*326 net43
*327 net44
*328 net45
*329 net46
*330 net47
*331 net48
*332 net49
*333 net238
*334 net50
*335 net51
*336 net52
*337 net53
*338 net54
*339 net55
*340 net56
*341 net57
*342 net58
*343 net59
*344 net239
*345 net60
*346 net61
*347 net62
*348 net63
*349 net64
*350 net65
*351 net66
*352 net67
*353 net68
*354 net69
*355 net240
*356 net70
*357 net71
*358 net72
*359 net73
*360 net74
*361 net75
*362 net76
*363 net77
*364 net78
*365 net79
*366 net241
*367 net80
*368 net81
*369 net82
*370 net83
*371 net84
*372 net85
*373 net86
*374 net87
*375 net88
*376 net89
*377 net242
*378 net90
*379 net91
*380 net92
*381 net93
*382 net94
*383 net95
*384 net96
*385 net97
*386 net98
*387 net99
*388 net243
*389 net100
*390 net101
*391 net102
*392 net103
*393 net104
*394 net105
*395 net106
*396 net107
*397 net108
*398 net109
*399 net244
*400 la_oenb[0]
*401 la_oenb[100]
*402 la_oenb[101]
*403 la_oenb[102]
*404 la_oenb[103]
*405 la_oenb[104]
*406 la_oenb[105]
*407 la_oenb[106]
*408 la_oenb[107]
*409 la_oenb[108]
*410 la_oenb[109]
*411 la_oenb[10]
*412 la_oenb[110]
*413 la_oenb[111]
*414 la_oenb[112]
*415 la_oenb[113]
*416 la_oenb[114]
*417 la_oenb[115]
*418 la_oenb[116]
*419 la_oenb[117]
*420 la_oenb[118]
*421 la_oenb[119]
*422 la_oenb[11]
*423 la_oenb[120]
*424 la_oenb[121]
*425 la_oenb[122]
*426 la_oenb[123]
*427 la_oenb[124]
*428 la_oenb[125]
*429 la_oenb[126]
*430 la_oenb[127]
*431 la_oenb[12]
*432 la_oenb[13]
*433 la_oenb[14]
*434 la_oenb[15]
*435 la_oenb[16]
*436 la_oenb[17]
*437 la_oenb[18]
*438 la_oenb[19]
*439 la_oenb[1]
*440 la_oenb[20]
*441 la_oenb[21]
*442 la_oenb[22]
*443 la_oenb[23]
*444 la_oenb[24]
*445 la_oenb[25]
*446 la_oenb[26]
*447 la_oenb[27]
*448 la_oenb[28]
*449 la_oenb[29]
*450 la_oenb[2]
*451 la_oenb[30]
*452 la_oenb[31]
*453 la_oenb[32]
*454 la_oenb[33]
*455 la_oenb[34]
*456 la_oenb[35]
*457 la_oenb[36]
*458 la_oenb[37]
*459 la_oenb[38]
*460 la_oenb[39]
*461 la_oenb[3]
*462 la_oenb[40]
*463 la_oenb[41]
*464 la_oenb[42]
*465 la_oenb[43]
*466 la_oenb[44]
*467 la_oenb[45]
*468 la_oenb[46]
*469 la_oenb[47]
*470 la_oenb[48]
*471 la_oenb[49]
*472 la_oenb[4]
*473 la_oenb[50]
*474 la_oenb[51]
*475 la_oenb[52]
*476 la_oenb[53]
*477 la_oenb[54]
*478 la_oenb[55]
*479 la_oenb[56]
*480 la_oenb[57]
*481 la_oenb[58]
*482 la_oenb[59]
*483 la_oenb[5]
*484 la_oenb[60]
*485 la_oenb[61]
*486 la_oenb[62]
*487 la_oenb[63]
*488 la_oenb[64]
*489 la_oenb[65]
*490 la_oenb[66]
*491 la_oenb[67]
*492 la_oenb[68]
*493 la_oenb[69]
*494 la_oenb[6]
*495 la_oenb[70]
*496 la_oenb[71]
*497 la_oenb[72]
*498 la_oenb[73]
*499 la_oenb[74]
*500 la_oenb[75]
*501 la_oenb[76]
*502 la_oenb[77]
*503 la_oenb[78]
*504 la_oenb[79]
*505 la_oenb[7]
*506 la_oenb[80]
*507 la_oenb[81]
*508 la_oenb[82]
*509 la_oenb[83]
*510 la_oenb[84]
*511 la_oenb[85]
*512 la_oenb[86]
*513 la_oenb[87]
*514 la_oenb[88]
*515 la_oenb[89]
*516 la_oenb[8]
*517 la_oenb[90]
*518 la_oenb[91]
*519 la_oenb[92]
*520 la_oenb[93]
*521 la_oenb[94]
*522 la_oenb[95]
*523 la_oenb[96]
*524 la_oenb[97]
*525 la_oenb[98]
*526 la_oenb[99]
*527 la_oenb[9]
*528 user_clock2
*529 net138
*530 net139
*531 net140
*534 wb_clk_i
*535 wb_rst_i
*536 net141
*537 wbs_adr_i[0]
*538 wbs_adr_i[10]
*539 wbs_adr_i[11]
*540 wbs_adr_i[12]
*541 wbs_adr_i[13]
*542 wbs_adr_i[14]
*543 wbs_adr_i[15]
*544 wbs_adr_i[16]
*545 wbs_adr_i[17]
*546 wbs_adr_i[18]
*547 wbs_adr_i[19]
*548 wbs_adr_i[1]
*549 wbs_adr_i[20]
*550 wbs_adr_i[21]
*551 wbs_adr_i[22]
*552 wbs_adr_i[23]
*553 wbs_adr_i[24]
*554 wbs_adr_i[25]
*555 wbs_adr_i[26]
*556 wbs_adr_i[27]
*557 wbs_adr_i[28]
*558 wbs_adr_i[29]
*559 wbs_adr_i[2]
*560 wbs_adr_i[30]
*561 wbs_adr_i[31]
*562 wbs_adr_i[3]
*563 wbs_adr_i[4]
*564 wbs_adr_i[5]
*565 wbs_adr_i[6]
*566 wbs_adr_i[7]
*567 wbs_adr_i[8]
*568 wbs_adr_i[9]
*569 wbs_cyc_i
*570 wbs_dat_i[0]
*571 wbs_dat_i[10]
*572 wbs_dat_i[11]
*573 wbs_dat_i[12]
*574 wbs_dat_i[13]
*575 wbs_dat_i[14]
*576 wbs_dat_i[15]
*577 wbs_dat_i[16]
*578 wbs_dat_i[17]
*579 wbs_dat_i[18]
*580 wbs_dat_i[19]
*581 wbs_dat_i[1]
*582 wbs_dat_i[20]
*583 wbs_dat_i[21]
*584 wbs_dat_i[22]
*585 wbs_dat_i[23]
*586 wbs_dat_i[24]
*587 wbs_dat_i[25]
*588 wbs_dat_i[26]
*589 wbs_dat_i[27]
*590 wbs_dat_i[28]
*591 wbs_dat_i[29]
*592 wbs_dat_i[2]
*593 wbs_dat_i[30]
*594 wbs_dat_i[31]
*595 wbs_dat_i[3]
*596 wbs_dat_i[4]
*597 wbs_dat_i[5]
*598 wbs_dat_i[6]
*599 wbs_dat_i[7]
*600 wbs_dat_i[8]
*601 wbs_dat_i[9]
*602 net142
*603 net152
*604 net153
*605 net154
*606 net155
*607 net156
*608 net157
*609 net158
*610 net159
*611 net160
*612 net161
*613 net143
*614 net162
*615 net163
*616 net164
*617 net165
*618 net166
*619 net167
*620 net168
*621 net169
*622 net170
*623 net171
*624 net144
*625 net172
*626 net173
*627 net145
*628 net146
*629 net147
*630 net148
*631 net149
*632 net150
*633 net151
*634 wbs_sel_i[0]
*635 wbs_sel_i[1]
*636 wbs_sel_i[2]
*637 wbs_sel_i[3]
*638 wbs_stb_i
*639 wbs_we_i
*640 _000_
*641 _001_
*642 _002_
*643 _003_
*644 _004_
*645 _005_
*646 _006_
*647 _007_
*648 _008_
*649 _009_
*650 _010_
*651 _011_
*652 _012_
*653 _013_
*654 _014_
*655 _015_
*656 _016_
*657 _017_
*658 _018_
*659 _019_
*660 _020_
*661 _021_
*662 _022_
*663 _023_
*664 _024_
*665 _025_
*666 _026_
*667 _027_
*668 _028_
*669 _029_
*670 _030_
*671 _031_
*672 _032_
*673 _033_
*674 _034_
*675 _035_
*676 _036_
*677 _037_
*678 _038_
*679 _039_
*680 _040_
*681 _041_
*682 _042_
*683 _043_
*684 _044_
*685 _045_
*686 _046_
*687 _047_
*688 _048_
*689 _049_
*690 _050_
*691 _051_
*692 _052_
*693 _053_
*694 _054_
*695 _055_
*696 _056_
*697 _057_
*698 _058_
*699 _059_
*700 _060_
*701 _061_
*702 _062_
*703 _063_
*704 _064_
*705 _065_
*706 _066_
*707 _067_
*708 _068_
*709 _069_
*710 _070_
*711 _071_
*712 _072_
*713 _073_
*714 _074_
*715 _075_
*716 _076_
*717 _077_
*718 _078_
*719 _079_
*720 _080_
*721 _081_
*722 _082_
*723 _083_
*724 _084_
*725 _085_
*726 _086_
*727 _087_
*728 _088_
*729 _089_
*730 net1
*731 net10
*732 net11
*733 net12
*734 net13
*735 net14
*736 net15
*737 net16
*738 net17
*739 net174
*740 net175
*741 net176
*742 net177
*743 net178
*744 net179
*745 net18
*746 net180
*747 net181
*748 net182
*749 net183
*750 net184
*751 net185
*752 net186
*753 net187
*754 net188
*755 net189
*756 net19
*757 net190
*758 net191
*759 net192
*760 net193
*761 net194
*762 net195
*763 net196
*764 net2
*765 net20
*766 net246
*767 net247
*768 net248
*769 net249
*770 net250
*771 net251
*772 net252
*773 net253
*774 net254
*775 net255
*776 net256
*777 net257
*778 net258
*779 net259
*780 net260
*781 net261
*782 net262
*783 net263
*784 net264
*785 net265
*786 net266
*787 net267
*788 net268
*789 net269
*790 net270
*791 net271
*792 net272
*793 net273
*794 net274
*795 net275
*796 net276
*797 net277
*798 net278
*799 net279
*800 net280
*801 net281
*802 net282
*803 net283
*804 net3
*805 net4
*806 net5
*807 net6
*808 net7
*809 net8
*810 net9
*811 u_alu_xor_4\.ALU_Out1\[0\]
*812 u_alu_xor_4\.ALU_Out1\[1\]
*813 u_alu_xor_4\.ALU_Out1\[2\]
*814 u_alu_xor_4\.ALU_Out1\[3\]
*815 u_alu_xor_4\.ALU_Out2\[0\]
*816 u_alu_xor_4\.ALU_Out2\[1\]
*817 u_alu_xor_4\.ALU_Out2\[2\]
*818 u_alu_xor_4\.ALU_Out2\[3\]
*819 u_alu_xor_4\.CarryOut1
*820 u_alu_xor_4\.CarryOut2
*821 u_alu_xor_4\.x\[0\]
*822 u_alu_xor_4\.x\[1\]
*823 u_alu_xor_4\.x\[2\]
*824 u_alu_xor_4\.x\[3\]
*825 u_alu_xor_4\.y
*826 ANTENNA__151__A
*827 ANTENNA__152__A
*828 ANTENNA__156__A
*829 ANTENNA__160__A
*830 ANTENNA__160__B_N
*831 ANTENNA__161__B1
*832 ANTENNA__162__A
*833 ANTENNA__162__B
*834 ANTENNA__167__A1
*835 ANTENNA__167__B1
*836 ANTENNA__171__A2
*837 ANTENNA__172__A
*838 ANTENNA__173__A
*839 ANTENNA__174__A
*840 ANTENNA__179__A1
*841 ANTENNA__179__A2
*842 ANTENNA__179__B1
*843 ANTENNA__180__A2
*844 ANTENNA__183__A1
*845 ANTENNA__183__A2
*846 ANTENNA__183__A3
*847 ANTENNA__184__A
*848 ANTENNA__185__A
*849 ANTENNA__186__A
*850 ANTENNA__187__B1
*851 ANTENNA__188__A
*852 ANTENNA__192__A1
*853 ANTENNA__192__A2
*854 ANTENNA__192__B1
*855 ANTENNA__193__A2
*856 ANTENNA__198__A1
*857 ANTENNA__202__A
*858 ANTENNA__203__A
*859 ANTENNA__204__B_N
*860 ANTENNA__205__A
*861 ANTENNA__206__A
*862 ANTENNA__208__A1
*863 ANTENNA__210__A_N
*864 ANTENNA__210__B
*865 ANTENNA__217__A1
*866 ANTENNA__236__A
*867 ANTENNA__237__A
*868 ANTENNA__242__A1
*869 ANTENNA__242__B1
*870 ANTENNA__247__A1
*871 ANTENNA_input10_A
*872 ANTENNA_input11_A
*873 ANTENNA_input12_A
*874 ANTENNA_input13_A
*875 ANTENNA_input14_A
*876 ANTENNA_input15_A
*877 ANTENNA_input16_A
*878 ANTENNA_input17_A
*879 ANTENNA_input18_A
*880 ANTENNA_input19_A
*881 ANTENNA_input1_A
*882 ANTENNA_input20_A
*883 ANTENNA_input2_A
*884 ANTENNA_input3_A
*885 ANTENNA_input4_A
*886 ANTENNA_input5_A
*887 ANTENNA_input6_A
*888 ANTENNA_input7_A
*889 ANTENNA_input8_A
*890 ANTENNA_input9_A
*891 FILLER_0_1004
*892 FILLER_0_1009
*893 FILLER_0_1017
*894 FILLER_0_1024
*895 FILLER_0_1032
*896 FILLER_0_1039
*897 FILLER_0_104
*898 FILLER_0_1046
*899 FILLER_0_1051
*900 FILLER_0_1055
*901 FILLER_0_106
*902 FILLER_0_1063
*903 FILLER_0_1069
*904 FILLER_0_1077
*905 FILLER_0_1084
*906 FILLER_0_1091
*907 FILLER_0_1096
*908 FILLER_0_110
*909 FILLER_0_1102
*910 FILLER_0_1114
*911 FILLER_0_1122
*912 FILLER_0_1129
*913 FILLER_0_1137
*914 FILLER_0_1144
*915 FILLER_0_1151
*916 FILLER_0_1156
*917 FILLER_0_1160
*918 FILLER_0_1168
*919 FILLER_0_1174
*920 FILLER_0_118
*921 FILLER_0_1182
*922 FILLER_0_1189
*923 FILLER_0_1196
*924 FILLER_0_1201
*925 FILLER_0_1207
*926 FILLER_0_1219
*927 FILLER_0_1227
*928 FILLER_0_1234
*929 FILLER_0_124
*930 FILLER_0_1242
*931 FILLER_0_1249
*932 FILLER_0_1256
*933 FILLER_0_1261
*934 FILLER_0_1266
*935 FILLER_0_1274
*936 FILLER_0_1279
*937 FILLER_0_1287
*938 FILLER_0_1294
*939 FILLER_0_1301
*940 FILLER_0_1306
*941 FILLER_0_1313
*942 FILLER_0_1319
*943 FILLER_0_132
*944 FILLER_0_1321
*945 FILLER_0_1325
*946 FILLER_0_1333
*947 FILLER_0_1339
*948 FILLER_0_1347
*949 FILLER_0_1354
*950 FILLER_0_1361
*951 FILLER_0_1366
*952 FILLER_0_1371
*953 FILLER_0_1379
*954 FILLER_0_1384
*955 FILLER_0_139
*956 FILLER_0_1392
*957 FILLER_0_1399
*958 FILLER_0_14
*959 FILLER_0_1407
*960 FILLER_0_1414
*961 FILLER_0_1421
*962 FILLER_0_1426
*963 FILLER_0_1430
*964 FILLER_0_1438
*965 FILLER_0_1444
*966 FILLER_0_1452
*967 FILLER_0_1459
*968 FILLER_0_146
*969 FILLER_0_1466
*970 FILLER_0_1471
*971 FILLER_0_1477
*972 FILLER_0_1489
*973 FILLER_0_1497
*974 FILLER_0_1504
*975 FILLER_0_151
*976 FILLER_0_1512
*977 FILLER_0_1519
*978 FILLER_0_1526
*979 FILLER_0_1531
*980 FILLER_0_1535
*981 FILLER_0_1543
*982 FILLER_0_1549
*983 FILLER_0_1557
*984 FILLER_0_1564
*985 FILLER_0_157
*986 FILLER_0_1571
*987 FILLER_0_1576
*988 FILLER_0_1582
*989 FILLER_0_1594
*990 FILLER_0_16
*991 FILLER_0_1602
*992 FILLER_0_1609
*993 FILLER_0_1617
*994 FILLER_0_1624
*995 FILLER_0_1631
*996 FILLER_0_1636
*997 FILLER_0_1641
*998 FILLER_0_1649
*999 FILLER_0_1654
*1000 FILLER_0_1662
*1001 FILLER_0_1669
*1002 FILLER_0_1676
*1003 FILLER_0_1681
*1004 FILLER_0_1688
*1005 FILLER_0_169
*1006 FILLER_0_1694
*1007 FILLER_0_1696
*1008 FILLER_0_1700
*1009 FILLER_0_1708
*1010 FILLER_0_1714
*1011 FILLER_0_1722
*1012 FILLER_0_1729
*1013 FILLER_0_1736
*1014 FILLER_0_1741
*1015 FILLER_0_1746
*1016 FILLER_0_1754
*1017 FILLER_0_1759
*1018 FILLER_0_1767
*1019 FILLER_0_177
*1020 FILLER_0_1774
*1021 FILLER_0_1782
*1022 FILLER_0_1789
*1023 FILLER_0_1796
*1024 FILLER_0_1801
*1025 FILLER_0_1805
*1026 FILLER_0_1813
*1027 FILLER_0_1819
*1028 FILLER_0_1827
*1029 FILLER_0_1834
*1030 FILLER_0_184
*1031 FILLER_0_1841
*1032 FILLER_0_1846
*1033 FILLER_0_1852
*1034 FILLER_0_1864
*1035 FILLER_0_1872
*1036 FILLER_0_1879
*1037 FILLER_0_1887
*1038 FILLER_0_1894
*1039 FILLER_0_1901
*1040 FILLER_0_1906
*1041 FILLER_0_1918
*1042 FILLER_0_192
*1043 FILLER_0_1924
*1044 FILLER_0_1928
*1045 FILLER_0_199
*1046 FILLER_0_20
*1047 FILLER_0_206
*1048 FILLER_0_211
*1049 FILLER_0_215
*1050 FILLER_0_223
*1051 FILLER_0_229
*1052 FILLER_0_237
*1053 FILLER_0_24
*1054 FILLER_0_244
*1055 FILLER_0_251
*1056 FILLER_0_256
*1057 FILLER_0_262
*1058 FILLER_0_274
*1059 FILLER_0_282
*1060 FILLER_0_289
*1061 FILLER_0_297
*1062 FILLER_0_304
*1063 FILLER_0_31
*1064 FILLER_0_311
*1065 FILLER_0_316
*1066 FILLER_0_321
*1067 FILLER_0_329
*1068 FILLER_0_334
*1069 FILLER_0_342
*1070 FILLER_0_349
*1071 FILLER_0_35
*1072 FILLER_0_356
*1073 FILLER_0_361
*1074 FILLER_0_367
*1075 FILLER_0_379
*1076 FILLER_0_387
*1077 FILLER_0_39
*1078 FILLER_0_394
*1079 FILLER_0_402
*1080 FILLER_0_409
*1081 FILLER_0_416
*1082 FILLER_0_424
*1083 FILLER_0_432
*1084 FILLER_0_439
*1085 FILLER_0_446
*1086 FILLER_0_451
*1087 FILLER_0_457
*1088 FILLER_0_46
*1089 FILLER_0_469
*1090 FILLER_0_477
*1091 FILLER_0_484
*1092 FILLER_0_492
*1093 FILLER_0_499
*1094 FILLER_0_506
*1095 FILLER_0_511
*1096 FILLER_0_516
*1097 FILLER_0_524
*1098 FILLER_0_529
*1099 FILLER_0_537
*1100 FILLER_0_544
*1101 FILLER_0_55
*1102 FILLER_0_551
*1103 FILLER_0_556
*1104 FILLER_0_563
*1105 FILLER_0_569
*1106 FILLER_0_571
*1107 FILLER_0_575
*1108 FILLER_0_583
*1109 FILLER_0_589
*1110 FILLER_0_59
*1111 FILLER_0_597
*1112 FILLER_0_6
*1113 FILLER_0_604
*1114 FILLER_0_61
*1115 FILLER_0_611
*1116 FILLER_0_616
*1117 FILLER_0_621
*1118 FILLER_0_629
*1119 FILLER_0_634
*1120 FILLER_0_642
*1121 FILLER_0_649
*1122 FILLER_0_657
*1123 FILLER_0_664
*1124 FILLER_0_67
*1125 FILLER_0_671
*1126 FILLER_0_676
*1127 FILLER_0_680
*1128 FILLER_0_688
*1129 FILLER_0_694
*1130 FILLER_0_702
*1131 FILLER_0_709
*1132 FILLER_0_71
*1133 FILLER_0_716
*1134 FILLER_0_721
*1135 FILLER_0_727
*1136 FILLER_0_739
*1137 FILLER_0_747
*1138 FILLER_0_754
*1139 FILLER_0_76
*1140 FILLER_0_762
*1141 FILLER_0_769
*1142 FILLER_0_776
*1143 FILLER_0_781
*1144 FILLER_0_785
*1145 FILLER_0_793
*1146 FILLER_0_799
*1147 FILLER_0_807
*1148 FILLER_0_814
*1149 FILLER_0_82
*1150 FILLER_0_821
*1151 FILLER_0_826
*1152 FILLER_0_832
*1153 FILLER_0_844
*1154 FILLER_0_852
*1155 FILLER_0_859
*1156 FILLER_0_86
*1157 FILLER_0_867
*1158 FILLER_0_874
*1159 FILLER_0_881
*1160 FILLER_0_886
*1161 FILLER_0_891
*1162 FILLER_0_899
*1163 FILLER_0_904
*1164 FILLER_0_91
*1165 FILLER_0_912
*1166 FILLER_0_919
*1167 FILLER_0_926
*1168 FILLER_0_931
*1169 FILLER_0_938
*1170 FILLER_0_944
*1171 FILLER_0_946
*1172 FILLER_0_950
*1173 FILLER_0_958
*1174 FILLER_0_964
*1175 FILLER_0_972
*1176 FILLER_0_979
*1177 FILLER_0_98
*1178 FILLER_0_986
*1179 FILLER_0_991
*1180 FILLER_0_996
*1181 FILLER_100_100
*1182 FILLER_100_1000
*1183 FILLER_100_1004
*1184 FILLER_100_1006
*1185 FILLER_100_1018
*1186 FILLER_100_1030
*1187 FILLER_100_1034
*1188 FILLER_100_1036
*1189 FILLER_100_104
*1190 FILLER_100_1048
*1191 FILLER_100_106
*1192 FILLER_100_1060
*1193 FILLER_100_1064
*1194 FILLER_100_1066
*1195 FILLER_100_1078
*1196 FILLER_100_1090
*1197 FILLER_100_1094
*1198 FILLER_100_1096
*1199 FILLER_100_1108
*1200 FILLER_100_1120
*1201 FILLER_100_1124
*1202 FILLER_100_1126
*1203 FILLER_100_1138
*1204 FILLER_100_1150
*1205 FILLER_100_1154
*1206 FILLER_100_1156
*1207 FILLER_100_1168
*1208 FILLER_100_118
*1209 FILLER_100_1180
*1210 FILLER_100_1184
*1211 FILLER_100_1186
*1212 FILLER_100_1198
*1213 FILLER_100_1210
*1214 FILLER_100_1214
*1215 FILLER_100_1216
*1216 FILLER_100_1228
*1217 FILLER_100_1240
*1218 FILLER_100_1244
*1219 FILLER_100_1246
*1220 FILLER_100_1258
*1221 FILLER_100_1270
*1222 FILLER_100_1274
*1223 FILLER_100_1276
*1224 FILLER_100_1288
*1225 FILLER_100_130
*1226 FILLER_100_1300
*1227 FILLER_100_1304
*1228 FILLER_100_1306
*1229 FILLER_100_1318
*1230 FILLER_100_1330
*1231 FILLER_100_1334
*1232 FILLER_100_1336
*1233 FILLER_100_134
*1234 FILLER_100_1348
*1235 FILLER_100_136
*1236 FILLER_100_1360
*1237 FILLER_100_1364
*1238 FILLER_100_1366
*1239 FILLER_100_1378
*1240 FILLER_100_1390
*1241 FILLER_100_1394
*1242 FILLER_100_1396
*1243 FILLER_100_1408
*1244 FILLER_100_1420
*1245 FILLER_100_1424
*1246 FILLER_100_1426
*1247 FILLER_100_1438
*1248 FILLER_100_1450
*1249 FILLER_100_1454
*1250 FILLER_100_1456
*1251 FILLER_100_1468
*1252 FILLER_100_148
*1253 FILLER_100_1480
*1254 FILLER_100_1484
*1255 FILLER_100_1486
*1256 FILLER_100_1498
*1257 FILLER_100_1510
*1258 FILLER_100_1514
*1259 FILLER_100_1516
*1260 FILLER_100_1528
*1261 FILLER_100_1540
*1262 FILLER_100_1544
*1263 FILLER_100_1546
*1264 FILLER_100_1558
*1265 FILLER_100_1570
*1266 FILLER_100_1574
*1267 FILLER_100_1576
*1268 FILLER_100_1588
*1269 FILLER_100_16
*1270 FILLER_100_160
*1271 FILLER_100_1600
*1272 FILLER_100_1604
*1273 FILLER_100_1606
*1274 FILLER_100_1618
*1275 FILLER_100_1630
*1276 FILLER_100_1634
*1277 FILLER_100_1636
*1278 FILLER_100_164
*1279 FILLER_100_1648
*1280 FILLER_100_166
*1281 FILLER_100_1660
*1282 FILLER_100_1664
*1283 FILLER_100_1666
*1284 FILLER_100_1678
*1285 FILLER_100_1690
*1286 FILLER_100_1694
*1287 FILLER_100_1696
*1288 FILLER_100_1708
*1289 FILLER_100_1720
*1290 FILLER_100_1724
*1291 FILLER_100_1726
*1292 FILLER_100_1738
*1293 FILLER_100_1750
*1294 FILLER_100_1754
*1295 FILLER_100_1756
*1296 FILLER_100_1768
*1297 FILLER_100_178
*1298 FILLER_100_1780
*1299 FILLER_100_1784
*1300 FILLER_100_1786
*1301 FILLER_100_1798
*1302 FILLER_100_1810
*1303 FILLER_100_1814
*1304 FILLER_100_1816
*1305 FILLER_100_1828
*1306 FILLER_100_1840
*1307 FILLER_100_1844
*1308 FILLER_100_1846
*1309 FILLER_100_1858
*1310 FILLER_100_1870
*1311 FILLER_100_1874
*1312 FILLER_100_1876
*1313 FILLER_100_1888
*1314 FILLER_100_190
*1315 FILLER_100_1900
*1316 FILLER_100_1904
*1317 FILLER_100_1906
*1318 FILLER_100_1918
*1319 FILLER_100_1926
*1320 FILLER_100_194
*1321 FILLER_100_196
*1322 FILLER_100_208
*1323 FILLER_100_220
*1324 FILLER_100_224
*1325 FILLER_100_226
*1326 FILLER_100_238
*1327 FILLER_100_250
*1328 FILLER_100_254
*1329 FILLER_100_256
*1330 FILLER_100_268
*1331 FILLER_100_28
*1332 FILLER_100_280
*1333 FILLER_100_284
*1334 FILLER_100_286
*1335 FILLER_100_298
*1336 FILLER_100_3
*1337 FILLER_100_310
*1338 FILLER_100_314
*1339 FILLER_100_316
*1340 FILLER_100_328
*1341 FILLER_100_340
*1342 FILLER_100_344
*1343 FILLER_100_346
*1344 FILLER_100_358
*1345 FILLER_100_370
*1346 FILLER_100_374
*1347 FILLER_100_376
*1348 FILLER_100_388
*1349 FILLER_100_40
*1350 FILLER_100_400
*1351 FILLER_100_404
*1352 FILLER_100_406
*1353 FILLER_100_418
*1354 FILLER_100_430
*1355 FILLER_100_434
*1356 FILLER_100_436
*1357 FILLER_100_44
*1358 FILLER_100_448
*1359 FILLER_100_46
*1360 FILLER_100_460
*1361 FILLER_100_464
*1362 FILLER_100_466
*1363 FILLER_100_478
*1364 FILLER_100_490
*1365 FILLER_100_494
*1366 FILLER_100_496
*1367 FILLER_100_508
*1368 FILLER_100_520
*1369 FILLER_100_524
*1370 FILLER_100_526
*1371 FILLER_100_538
*1372 FILLER_100_550
*1373 FILLER_100_554
*1374 FILLER_100_556
*1375 FILLER_100_568
*1376 FILLER_100_58
*1377 FILLER_100_580
*1378 FILLER_100_584
*1379 FILLER_100_586
*1380 FILLER_100_598
*1381 FILLER_100_610
*1382 FILLER_100_614
*1383 FILLER_100_616
*1384 FILLER_100_628
*1385 FILLER_100_640
*1386 FILLER_100_644
*1387 FILLER_100_646
*1388 FILLER_100_658
*1389 FILLER_100_670
*1390 FILLER_100_674
*1391 FILLER_100_676
*1392 FILLER_100_688
*1393 FILLER_100_70
*1394 FILLER_100_700
*1395 FILLER_100_704
*1396 FILLER_100_706
*1397 FILLER_100_718
*1398 FILLER_100_730
*1399 FILLER_100_734
*1400 FILLER_100_736
*1401 FILLER_100_74
*1402 FILLER_100_748
*1403 FILLER_100_76
*1404 FILLER_100_760
*1405 FILLER_100_764
*1406 FILLER_100_766
*1407 FILLER_100_778
*1408 FILLER_100_790
*1409 FILLER_100_794
*1410 FILLER_100_796
*1411 FILLER_100_808
*1412 FILLER_100_820
*1413 FILLER_100_824
*1414 FILLER_100_826
*1415 FILLER_100_838
*1416 FILLER_100_850
*1417 FILLER_100_854
*1418 FILLER_100_856
*1419 FILLER_100_868
*1420 FILLER_100_88
*1421 FILLER_100_880
*1422 FILLER_100_884
*1423 FILLER_100_886
*1424 FILLER_100_898
*1425 FILLER_100_910
*1426 FILLER_100_914
*1427 FILLER_100_916
*1428 FILLER_100_928
*1429 FILLER_100_940
*1430 FILLER_100_944
*1431 FILLER_100_946
*1432 FILLER_100_958
*1433 FILLER_100_970
*1434 FILLER_100_974
*1435 FILLER_100_976
*1436 FILLER_100_988
*1437 FILLER_101_1003
*1438 FILLER_101_1015
*1439 FILLER_101_1019
*1440 FILLER_101_1021
*1441 FILLER_101_103
*1442 FILLER_101_1033
*1443 FILLER_101_1045
*1444 FILLER_101_1049
*1445 FILLER_101_1051
*1446 FILLER_101_1063
*1447 FILLER_101_1075
*1448 FILLER_101_1079
*1449 FILLER_101_1081
*1450 FILLER_101_1093
*1451 FILLER_101_1105
*1452 FILLER_101_1109
*1453 FILLER_101_1111
*1454 FILLER_101_1123
*1455 FILLER_101_1135
*1456 FILLER_101_1139
*1457 FILLER_101_1141
*1458 FILLER_101_115
*1459 FILLER_101_1153
*1460 FILLER_101_1165
*1461 FILLER_101_1169
*1462 FILLER_101_1171
*1463 FILLER_101_1183
*1464 FILLER_101_119
*1465 FILLER_101_1195
*1466 FILLER_101_1199
*1467 FILLER_101_1201
*1468 FILLER_101_121
*1469 FILLER_101_1213
*1470 FILLER_101_1225
*1471 FILLER_101_1229
*1472 FILLER_101_1231
*1473 FILLER_101_1243
*1474 FILLER_101_1255
*1475 FILLER_101_1259
*1476 FILLER_101_1261
*1477 FILLER_101_1273
*1478 FILLER_101_1285
*1479 FILLER_101_1289
*1480 FILLER_101_1291
*1481 FILLER_101_1303
*1482 FILLER_101_1315
*1483 FILLER_101_1319
*1484 FILLER_101_1321
*1485 FILLER_101_133
*1486 FILLER_101_1333
*1487 FILLER_101_1345
*1488 FILLER_101_1349
*1489 FILLER_101_1351
*1490 FILLER_101_1363
*1491 FILLER_101_1375
*1492 FILLER_101_1379
*1493 FILLER_101_1381
*1494 FILLER_101_1393
*1495 FILLER_101_1405
*1496 FILLER_101_1409
*1497 FILLER_101_1411
*1498 FILLER_101_1423
*1499 FILLER_101_1435
*1500 FILLER_101_1439
*1501 FILLER_101_1441
*1502 FILLER_101_145
*1503 FILLER_101_1453
*1504 FILLER_101_1465
*1505 FILLER_101_1469
*1506 FILLER_101_1471
*1507 FILLER_101_1483
*1508 FILLER_101_149
*1509 FILLER_101_1495
*1510 FILLER_101_1499
*1511 FILLER_101_15
*1512 FILLER_101_1501
*1513 FILLER_101_151
*1514 FILLER_101_1513
*1515 FILLER_101_1525
*1516 FILLER_101_1529
*1517 FILLER_101_1531
*1518 FILLER_101_1543
*1519 FILLER_101_1555
*1520 FILLER_101_1559
*1521 FILLER_101_1561
*1522 FILLER_101_1573
*1523 FILLER_101_1585
*1524 FILLER_101_1589
*1525 FILLER_101_1591
*1526 FILLER_101_1603
*1527 FILLER_101_1615
*1528 FILLER_101_1619
*1529 FILLER_101_1621
*1530 FILLER_101_163
*1531 FILLER_101_1633
*1532 FILLER_101_1645
*1533 FILLER_101_1649
*1534 FILLER_101_1651
*1535 FILLER_101_1663
*1536 FILLER_101_1675
*1537 FILLER_101_1679
*1538 FILLER_101_1681
*1539 FILLER_101_1693
*1540 FILLER_101_1705
*1541 FILLER_101_1709
*1542 FILLER_101_1711
*1543 FILLER_101_1723
*1544 FILLER_101_1735
*1545 FILLER_101_1739
*1546 FILLER_101_1741
*1547 FILLER_101_175
*1548 FILLER_101_1753
*1549 FILLER_101_1765
*1550 FILLER_101_1769
*1551 FILLER_101_1771
*1552 FILLER_101_1783
*1553 FILLER_101_179
*1554 FILLER_101_1795
*1555 FILLER_101_1799
*1556 FILLER_101_1801
*1557 FILLER_101_181
*1558 FILLER_101_1813
*1559 FILLER_101_1825
*1560 FILLER_101_1829
*1561 FILLER_101_1831
*1562 FILLER_101_1843
*1563 FILLER_101_1855
*1564 FILLER_101_1859
*1565 FILLER_101_1861
*1566 FILLER_101_1873
*1567 FILLER_101_1885
*1568 FILLER_101_1889
*1569 FILLER_101_1891
*1570 FILLER_101_1903
*1571 FILLER_101_1915
*1572 FILLER_101_1919
*1573 FILLER_101_1921
*1574 FILLER_101_193
*1575 FILLER_101_205
*1576 FILLER_101_209
*1577 FILLER_101_211
*1578 FILLER_101_223
*1579 FILLER_101_235
*1580 FILLER_101_239
*1581 FILLER_101_241
*1582 FILLER_101_253
*1583 FILLER_101_265
*1584 FILLER_101_269
*1585 FILLER_101_27
*1586 FILLER_101_271
*1587 FILLER_101_283
*1588 FILLER_101_295
*1589 FILLER_101_299
*1590 FILLER_101_3
*1591 FILLER_101_301
*1592 FILLER_101_31
*1593 FILLER_101_313
*1594 FILLER_101_325
*1595 FILLER_101_329
*1596 FILLER_101_331
*1597 FILLER_101_343
*1598 FILLER_101_355
*1599 FILLER_101_359
*1600 FILLER_101_361
*1601 FILLER_101_373
*1602 FILLER_101_385
*1603 FILLER_101_389
*1604 FILLER_101_391
*1605 FILLER_101_403
*1606 FILLER_101_415
*1607 FILLER_101_419
*1608 FILLER_101_421
*1609 FILLER_101_43
*1610 FILLER_101_433
*1611 FILLER_101_445
*1612 FILLER_101_449
*1613 FILLER_101_451
*1614 FILLER_101_463
*1615 FILLER_101_475
*1616 FILLER_101_479
*1617 FILLER_101_481
*1618 FILLER_101_493
*1619 FILLER_101_505
*1620 FILLER_101_509
*1621 FILLER_101_511
*1622 FILLER_101_523
*1623 FILLER_101_535
*1624 FILLER_101_539
*1625 FILLER_101_541
*1626 FILLER_101_55
*1627 FILLER_101_553
*1628 FILLER_101_565
*1629 FILLER_101_569
*1630 FILLER_101_571
*1631 FILLER_101_583
*1632 FILLER_101_59
*1633 FILLER_101_595
*1634 FILLER_101_599
*1635 FILLER_101_601
*1636 FILLER_101_61
*1637 FILLER_101_613
*1638 FILLER_101_625
*1639 FILLER_101_629
*1640 FILLER_101_631
*1641 FILLER_101_643
*1642 FILLER_101_655
*1643 FILLER_101_659
*1644 FILLER_101_661
*1645 FILLER_101_673
*1646 FILLER_101_685
*1647 FILLER_101_689
*1648 FILLER_101_691
*1649 FILLER_101_703
*1650 FILLER_101_715
*1651 FILLER_101_719
*1652 FILLER_101_721
*1653 FILLER_101_73
*1654 FILLER_101_733
*1655 FILLER_101_745
*1656 FILLER_101_749
*1657 FILLER_101_751
*1658 FILLER_101_763
*1659 FILLER_101_775
*1660 FILLER_101_779
*1661 FILLER_101_781