*SPEF "ieee 1481-1999"
*DESIGN "macro_no_decap"
*DATE "11:11:11 Fri 11 11, 1111"
*VENDOR "OpenRCX"
*PROGRAM "Parallel Extraction"
*VERSION "1.0"
*DESIGN_FLOW "NAME_SCOPE LOCAL" "PIN_CAP NONE"
*DIVIDER /
*DELIMITER :
*BUS_DELIMITER []
*T_UNIT 1 NS
*C_UNIT 1 PF
*R_UNIT 1 OHM
*L_UNIT 1 HENRY

*NAME_MAP
*1 active
*2 analog_io[0]
*3 analog_io[10]
*4 analog_io[11]
*5 analog_io[12]
*6 analog_io[13]
*7 analog_io[14]
*8 analog_io[15]
*9 analog_io[16]
*10 analog_io[17]
*11 analog_io[18]
*12 analog_io[19]
*13 analog_io[1]
*14 analog_io[20]
*15 analog_io[21]
*16 analog_io[22]
*17 analog_io[23]
*18 analog_io[24]
*19 analog_io[25]
*20 analog_io[26]
*21 analog_io[27]
*22 analog_io[28]
*23 analog_io[2]
*24 analog_io[3]
*25 analog_io[4]
*26 analog_io[5]
*27 analog_io[6]
*28 analog_io[7]
*29 analog_io[8]
*30 analog_io[9]
*31 io_in[0]
*32 io_in[10]
*33 io_in[11]
*34 io_in[12]
*35 io_in[13]
*36 io_in[14]
*37 io_in[15]
*38 io_in[16]
*39 io_in[17]
*40 io_in[18]
*41 io_in[19]
*42 io_in[1]
*43 io_in[20]
*44 io_in[21]
*45 io_in[22]
*46 io_in[23]
*47 io_in[24]
*48 io_in[25]
*49 io_in[26]
*50 io_in[27]
*51 io_in[28]
*52 io_in[29]
*53 io_in[2]
*54 io_in[30]
*55 io_in[31]
*56 io_in[32]
*57 io_in[33]
*58 io_in[34]
*59 io_in[35]
*60 io_in[36]
*61 io_in[37]
*62 io_in[3]
*63 io_in[4]
*64 io_in[5]
*65 io_in[6]
*66 io_in[7]
*67 io_in[8]
*68 io_in[9]
*69 net234
*70 net244
*71 net245
*72 net246
*73 net247
*74 net248
*75 net249
*76 net250
*77 net251
*78 net252
*79 net253
*80 net235
*81 net254
*82 net255
*83 net256
*84 net257
*85 net258
*86 net259
*87 net260
*88 net261
*89 net37
*90 net38
*91 net236
*92 net39
*93 net40
*94 net41
*95 net42
*96 net43
*97 net44
*98 net45
*99 net46
*100 net237
*101 net238
*102 net239
*103 net240
*104 net241
*105 net242
*106 net243
*107 io_out[0]
*108 io_out[10]
*109 io_out[11]
*110 io_out[12]
*111 io_out[13]
*112 io_out[14]
*113 io_out[15]
*114 io_out[16]
*115 io_out[17]
*116 net50
*117 net51
*118 net47
*119 net52
*120 net53
*121 net54
*122 net55
*123 net56
*124 net57
*125 net58
*126 net59
*127 net60
*128 net61
*129 net48
*130 net62
*131 net63
*132 net64
*133 net65
*134 net66
*135 net67
*136 net68
*137 net69
*138 net49
*139 io_out[4]
*140 io_out[5]
*141 io_out[6]
*142 io_out[7]
*143 io_out[8]
*144 io_out[9]
*145 la_data_in[0]
*146 la_data_in[100]
*147 la_data_in[101]
*148 la_data_in[102]
*149 la_data_in[103]
*150 la_data_in[104]
*151 la_data_in[105]
*152 la_data_in[106]
*153 la_data_in[107]
*154 la_data_in[108]
*155 la_data_in[109]
*156 la_data_in[10]
*157 la_data_in[110]
*158 la_data_in[111]
*159 la_data_in[112]
*160 la_data_in[113]
*161 la_data_in[114]
*162 la_data_in[115]
*163 la_data_in[116]
*164 la_data_in[117]
*165 la_data_in[118]
*166 la_data_in[119]
*167 la_data_in[11]
*168 la_data_in[120]
*169 la_data_in[121]
*170 la_data_in[122]
*171 la_data_in[123]
*172 la_data_in[124]
*173 la_data_in[125]
*174 la_data_in[126]
*175 la_data_in[127]
*176 la_data_in[12]
*177 la_data_in[13]
*178 la_data_in[14]
*179 la_data_in[15]
*180 la_data_in[16]
*181 la_data_in[17]
*182 la_data_in[18]
*183 la_data_in[19]
*184 la_data_in[1]
*185 la_data_in[20]
*186 la_data_in[21]
*187 la_data_in[22]
*188 la_data_in[23]
*189 la_data_in[24]
*190 la_data_in[25]
*191 la_data_in[26]
*192 la_data_in[27]
*193 la_data_in[28]
*194 la_data_in[29]
*195 la_data_in[2]
*196 la_data_in[30]
*197 la_data_in[31]
*198 la_data_in[32]
*199 la_data_in[33]
*200 la_data_in[34]
*201 la_data_in[35]
*202 la_data_in[36]
*203 la_data_in[37]
*204 la_data_in[38]
*205 la_data_in[39]
*206 la_data_in[3]
*207 la_data_in[40]
*208 la_data_in[41]
*209 la_data_in[42]
*210 la_data_in[43]
*211 la_data_in[44]
*212 la_data_in[45]
*213 la_data_in[46]
*214 la_data_in[47]
*215 la_data_in[48]
*216 la_data_in[49]
*217 la_data_in[4]
*218 la_data_in[50]
*219 la_data_in[51]
*220 la_data_in[52]
*221 la_data_in[53]
*222 la_data_in[54]
*223 la_data_in[55]
*224 la_data_in[56]
*225 la_data_in[57]
*226 la_data_in[58]
*227 la_data_in[59]
*228 la_data_in[5]
*229 la_data_in[60]
*230 la_data_in[61]
*231 la_data_in[62]
*232 la_data_in[63]
*233 la_data_in[64]
*234 la_data_in[65]
*235 la_data_in[66]
*236 la_data_in[67]
*237 la_data_in[68]
*238 la_data_in[69]
*239 la_data_in[6]
*240 la_data_in[70]
*241 la_data_in[71]
*242 la_data_in[72]
*243 la_data_in[73]
*244 la_data_in[74]
*245 la_data_in[75]
*246 la_data_in[76]
*247 la_data_in[77]
*248 la_data_in[78]
*249 la_data_in[79]
*250 la_data_in[7]
*251 la_data_in[80]
*252 la_data_in[81]
*253 la_data_in[82]
*254 la_data_in[83]
*255 la_data_in[84]
*256 la_data_in[85]
*257 la_data_in[86]
*258 la_data_in[87]
*259 la_data_in[88]
*260 la_data_in[89]
*261 la_data_in[8]
*262 la_data_in[90]
*263 la_data_in[91]
*264 la_data_in[92]
*265 la_data_in[93]
*266 la_data_in[94]
*267 la_data_in[95]
*268 la_data_in[96]
*269 la_data_in[97]
*270 la_data_in[98]
*271 la_data_in[99]
*272 la_data_in[9]
*273 net70
*274 net138
*275 net139
*276 net140
*277 net141
*278 net142
*279 net143
*280 net144
*281 net145
*282 net146
*283 net147
*284 net80
*285 net148
*286 net149
*287 net150
*288 net151
*289 net152
*290 net153
*291 net154
*292 net155
*293 net156
*294 net157
*295 net81
*296 net158
*297 net159
*298 net160
*299 net161
*300 net162
*301 net163
*302 net164
*303 net165
*304 net82
*305 net83
*306 net84
*307 net85
*308 net86
*309 net87
*310 net88
*311 net89
*312 net71
*313 net90
*314 net91
*315 net92
*316 net93
*317 net94
*318 net95
*319 net96
*320 net97
*321 net98
*322 net99
*323 net72
*324 net100
*325 net101
*326 la_data_out[32]
*327 la_data_out[33]
*328 la_data_out[34]
*329 la_data_out[35]
*330 la_data_out[36]
*331 la_data_out[37]
*332 la_data_out[38]
*333 la_data_out[39]
*334 net73
*335 la_data_out[40]
*336 la_data_out[41]
*337 la_data_out[42]
*338 la_data_out[43]
*339 la_data_out[44]
*340 la_data_out[45]
*341 la_data_out[46]
*342 la_data_out[47]
*343 la_data_out[48]
*344 la_data_out[49]
*345 net74
*346 la_data_out[50]
*347 la_data_out[51]
*348 la_data_out[52]
*349 la_data_out[53]
*350 la_data_out[54]
*351 la_data_out[55]
*352 la_data_out[56]
*353 la_data_out[57]
*354 la_data_out[58]
*355 la_data_out[59]
*356 net75
*357 la_data_out[60]
*358 la_data_out[61]
*359 la_data_out[62]
*360 la_data_out[63]
*361 net102
*362 net103
*363 net104
*364 net105
*365 net106
*366 net107
*367 net76
*368 net108
*369 net109
*370 net110
*371 net111
*372 net112
*373 net113
*374 net114
*375 net115
*376 net116
*377 net117
*378 net77
*379 net118
*380 net119
*381 net120
*382 net121
*383 net122
*384 net123
*385 net124
*386 net125
*387 net126
*388 net127
*389 net78
*390 net128
*391 net129
*392 net130
*393 net131
*394 net132
*395 net133
*396 net134
*397 net135
*398 net136
*399 net137
*400 net79
*401 la_oenb[0]
*402 la_oenb[100]
*403 la_oenb[101]
*404 la_oenb[102]
*405 la_oenb[103]
*406 la_oenb[104]
*407 la_oenb[105]
*408 la_oenb[106]
*409 la_oenb[107]
*410 la_oenb[108]
*411 la_oenb[109]
*412 la_oenb[10]
*413 la_oenb[110]
*414 la_oenb[111]
*415 la_oenb[112]
*416 la_oenb[113]
*417 la_oenb[114]
*418 la_oenb[115]
*419 la_oenb[116]
*420 la_oenb[117]
*421 la_oenb[118]
*422 la_oenb[119]
*423 la_oenb[11]
*424 la_oenb[120]
*425 la_oenb[121]
*426 la_oenb[122]
*427 la_oenb[123]
*428 la_oenb[124]
*429 la_oenb[125]
*430 la_oenb[126]
*431 la_oenb[127]
*432 la_oenb[12]
*433 la_oenb[13]
*434 la_oenb[14]
*435 la_oenb[15]
*436 la_oenb[16]
*437 la_oenb[17]
*438 la_oenb[18]
*439 la_oenb[19]
*440 la_oenb[1]
*441 la_oenb[20]
*442 la_oenb[21]
*443 la_oenb[22]
*444 la_oenb[23]
*445 la_oenb[24]
*446 la_oenb[25]
*447 la_oenb[26]
*448 la_oenb[27]
*449 la_oenb[28]
*450 la_oenb[29]
*451 la_oenb[2]
*452 la_oenb[30]
*453 la_oenb[31]
*454 la_oenb[32]
*455 la_oenb[33]
*456 la_oenb[34]
*457 la_oenb[35]
*458 la_oenb[36]
*459 la_oenb[37]
*460 la_oenb[38]
*461 la_oenb[39]
*462 la_oenb[3]
*463 la_oenb[40]
*464 la_oenb[41]
*465 la_oenb[42]
*466 la_oenb[43]
*467 la_oenb[44]
*468 la_oenb[45]
*469 la_oenb[46]
*470 la_oenb[47]
*471 la_oenb[48]
*472 la_oenb[49]
*473 la_oenb[4]
*474 la_oenb[50]
*475 la_oenb[51]
*476 la_oenb[52]
*477 la_oenb[53]
*478 la_oenb[54]
*479 la_oenb[55]
*480 la_oenb[56]
*481 la_oenb[57]
*482 la_oenb[58]
*483 la_oenb[59]
*484 la_oenb[5]
*485 la_oenb[60]
*486 la_oenb[61]
*487 la_oenb[62]
*488 la_oenb[63]
*489 la_oenb[64]
*490 la_oenb[65]
*491 la_oenb[66]
*492 la_oenb[67]
*493 la_oenb[68]
*494 la_oenb[69]
*495 la_oenb[6]
*496 la_oenb[70]
*497 la_oenb[71]
*498 la_oenb[72]
*499 la_oenb[73]
*500 la_oenb[74]
*501 la_oenb[75]
*502 la_oenb[76]
*503 la_oenb[77]
*504 la_oenb[78]
*505 la_oenb[79]
*506 la_oenb[7]
*507 la_oenb[80]
*508 la_oenb[81]
*509 la_oenb[82]
*510 la_oenb[83]
*511 la_oenb[84]
*512 la_oenb[85]
*513 la_oenb[86]
*514 la_oenb[87]
*515 la_oenb[88]
*516 la_oenb[89]
*517 la_oenb[8]
*518 la_oenb[90]
*519 la_oenb[91]
*520 la_oenb[92]
*521 la_oenb[93]
*522 la_oenb[94]
*523 la_oenb[95]
*524 la_oenb[96]
*525 la_oenb[97]
*526 la_oenb[98]
*527 la_oenb[99]
*528 la_oenb[9]
*529 user_clock2
*530 net166
*531 net167
*532 net168
*535 wb_clk_i
*536 wb_rst_i
*537 net169
*538 wbs_adr_i[0]
*539 wbs_adr_i[10]
*540 wbs_adr_i[11]
*541 wbs_adr_i[12]
*542 wbs_adr_i[13]
*543 wbs_adr_i[14]
*544 wbs_adr_i[15]
*545 wbs_adr_i[16]
*546 wbs_adr_i[17]
*547 wbs_adr_i[18]
*548 wbs_adr_i[19]
*549 wbs_adr_i[1]
*550 wbs_adr_i[20]
*551 wbs_adr_i[21]
*552 wbs_adr_i[22]
*553 wbs_adr_i[23]
*554 wbs_adr_i[24]
*555 wbs_adr_i[25]
*556 wbs_adr_i[26]
*557 wbs_adr_i[27]
*558 wbs_adr_i[28]
*559 wbs_adr_i[29]
*560 wbs_adr_i[2]
*561 wbs_adr_i[30]
*562 wbs_adr_i[31]
*563 wbs_adr_i[3]
*564 wbs_adr_i[4]
*565 wbs_adr_i[5]
*566 wbs_adr_i[6]
*567 wbs_adr_i[7]
*568 wbs_adr_i[8]
*569 wbs_adr_i[9]
*570 wbs_cyc_i
*571 wbs_dat_i[0]
*572 wbs_dat_i[10]
*573 wbs_dat_i[11]
*574 wbs_dat_i[12]
*575 wbs_dat_i[13]
*576 wbs_dat_i[14]
*577 wbs_dat_i[15]
*578 wbs_dat_i[16]
*579 wbs_dat_i[17]
*580 wbs_dat_i[18]
*581 wbs_dat_i[19]
*582 wbs_dat_i[1]
*583 wbs_dat_i[20]
*584 wbs_dat_i[21]
*585 wbs_dat_i[22]
*586 wbs_dat_i[23]
*587 wbs_dat_i[24]
*588 wbs_dat_i[25]
*589 wbs_dat_i[26]
*590 wbs_dat_i[27]
*591 wbs_dat_i[28]
*592 wbs_dat_i[29]
*593 wbs_dat_i[2]
*594 wbs_dat_i[30]
*595 wbs_dat_i[31]
*596 wbs_dat_i[3]
*597 wbs_dat_i[4]
*598 wbs_dat_i[5]
*599 wbs_dat_i[6]
*600 wbs_dat_i[7]
*601 wbs_dat_i[8]
*602 wbs_dat_i[9]
*603 net170
*604 net180
*605 net181
*606 net182
*607 net183
*608 net184
*609 net185
*610 net186
*611 net187
*612 net188
*613 net189
*614 net171
*615 net190
*616 net191
*617 net192
*618 net193
*619 net194
*620 net195
*621 net196
*622 net197
*623 net198
*624 net199
*625 net172
*626 net200
*627 net201
*628 net173
*629 net174
*630 net175
*631 net176
*632 net177
*633 net178
*634 net179
*635 wbs_sel_i[0]
*636 wbs_sel_i[1]
*637 wbs_sel_i[2]
*638 wbs_sel_i[3]
*639 wbs_stb_i
*640 wbs_we_i
*641 _000_
*642 _001_
*643 _002_
*644 _003_
*645 _004_
*646 _005_
*647 _006_
*648 _007_
*649 _008_
*650 _009_
*651 _010_
*652 _011_
*653 _012_
*654 _013_
*655 _014_
*656 _015_
*657 _016_
*658 _017_
*659 _018_
*660 _019_
*661 _020_
*662 _021_
*663 _022_
*664 _023_
*665 _024_
*666 _025_
*667 _026_
*668 _027_
*669 _028_
*670 _029_
*671 _030_
*672 _031_
*673 _032_
*674 _033_
*675 _034_
*676 _035_
*677 _036_
*678 _037_
*679 _038_
*680 _039_
*681 _040_
*682 _041_
*683 _042_
*684 _043_
*685 _044_
*686 _045_
*687 _046_
*688 _047_
*689 _048_
*690 _049_
*691 _050_
*692 _051_
*693 _052_
*694 _053_
*695 _054_
*696 _055_
*697 _056_
*698 _057_
*699 _058_
*700 _059_
*701 _060_
*702 _061_
*703 _062_
*704 _063_
*705 _064_
*706 _065_
*707 _066_
*708 _067_
*709 _068_
*710 _069_
*711 _070_
*712 _071_
*713 _072_
*714 _073_
*715 _074_
*716 _075_
*717 _076_
*718 _077_
*719 _078_
*720 _079_
*721 _080_
*722 _081_
*723 _082_
*724 _083_
*725 _084_
*726 _085_
*727 _086_
*728 _087_
*729 _088_
*730 _089_
*731 _090_
*732 _091_
*733 _092_
*734 _093_
*735 _094_
*736 _095_
*737 _096_
*738 _097_
*739 _098_
*740 _099_
*741 _100_
*742 _101_
*743 _102_
*744 _103_
*745 _104_
*746 _105_
*747 _106_
*748 _107_
*749 _108_
*750 _109_
*751 _110_
*752 _111_
*753 _112_
*754 _113_
*755 _114_
*756 _115_
*757 _116_
*758 _117_
*759 _118_
*760 _119_
*761 _120_
*762 _121_
*763 _122_
*764 _123_
*765 _124_
*766 _125_
*767 _126_
*768 _127_
*769 _128_
*770 _129_
*771 _130_
*772 _131_
*773 _132_
*774 _133_
*775 _134_
*776 _135_
*777 _136_
*778 _137_
*779 net1
*780 net10
*781 net11
*782 net12
*783 net13
*784 net14
*785 net15
*786 net16
*787 net17
*788 net18
*789 net19
*790 net2
*791 net20
*792 net202
*793 net203
*794 net204
*795 net205
*796 net206
*797 net207
*798 net208
*799 net209
*800 net21
*801 net210
*802 net211
*803 net212
*804 net213
*805 net214
*806 net215
*807 net216
*808 net217
*809 net218
*810 net219
*811 net22
*812 net220
*813 net221
*814 net222
*815 net223
*816 net224
*817 net225
*818 net226
*819 net227
*820 net228
*821 net229
*822 net23
*823 net230
*824 net231
*825 net232
*826 net233
*827 net24
*828 net25
*829 net26
*830 net27
*831 net28
*832 net29
*833 net3
*834 net30
*835 net31
*836 net32
*837 net33
*838 net34
*839 net35
*840 net36
*841 net4
*842 net5
*843 net6
*844 net7
*845 net8
*846 net9
*847 ANTENNA__170__A
*848 ANTENNA__171__A
*849 ANTENNA__172__A
*850 ANTENNA__197__A
*851 ANTENNA__203__A
*852 ANTENNA__211__A_N
*853 ANTENNA__211__B
*854 ANTENNA__212__A1
*855 ANTENNA__213__A
*856 ANTENNA__216__A
*857 ANTENNA__228__A1
*858 ANTENNA__230__A
*859 ANTENNA__233__A
*860 ANTENNA__234__A_N
*861 ANTENNA__234__B
*862 ANTENNA__235__A1
*863 ANTENNA__235__A2
*864 ANTENNA__236__A
*865 ANTENNA__237__A
*866 ANTENNA__238__A1
*867 ANTENNA__239__A
*868 ANTENNA__240__A
*869 ANTENNA__241__A
*870 ANTENNA__243__A1
*871 ANTENNA__243__B1_N
*872 ANTENNA__244__B1
*873 ANTENNA__245__A
*874 ANTENNA__246__A
*875 ANTENNA__248__A
*876 ANTENNA__249__A
*877 ANTENNA__251__A1
*878 ANTENNA__253__A
*879 ANTENNA__258__B1
*880 ANTENNA__258__B2
*881 ANTENNA__259__A
*882 ANTENNA__260__B2
*883 ANTENNA__263__A
*884 ANTENNA__264__A2_N
*885 ANTENNA__264__B2
*886 ANTENNA__265__A2
*887 ANTENNA__266__A3
*888 ANTENNA__267__A
*889 ANTENNA__270__A
*890 ANTENNA__272__B1
*891 ANTENNA__272__B2
*892 ANTENNA__275__A
*893 ANTENNA__276__A2
*894 ANTENNA__281__A
*895 ANTENNA__282__A2
*896 ANTENNA__282__B1
*897 ANTENNA__289__B1
*898 ANTENNA__289__B2
*899 ANTENNA__290__B1
*900 ANTENNA__294__B1
*901 ANTENNA__295__A1
*902 ANTENNA__296__A2
*903 ANTENNA__296__B1
*904 ANTENNA__297__B
*905 ANTENNA__298__A
*906 ANTENNA__306__B1
*907 ANTENNA__311__A1
*908 ANTENNA__312__A1
*909 ANTENNA__317__A1
*910 ANTENNA__317__B1
*911 ANTENNA__318__A1
*912 ANTENNA__321__C1
*913 ANTENNA__322__B1
*914 ANTENNA_input10_A
*915 ANTENNA_input11_A
*916 ANTENNA_input12_A
*917 ANTENNA_input13_A
*918 ANTENNA_input14_A
*919 ANTENNA_input15_A
*920 ANTENNA_input16_A
*921 ANTENNA_input17_A
*922 ANTENNA_input18_A
*923 ANTENNA_input19_A
*924 ANTENNA_input1_A
*925 ANTENNA_input20_A
*926 ANTENNA_input21_A
*927 ANTENNA_input2_A
*928 ANTENNA_input3_A
*929 ANTENNA_input4_A
*930 ANTENNA_input5_A
*931 ANTENNA_input6_A
*932 ANTENNA_input7_A
*933 ANTENNA_input8_A
*934 ANTENNA_input9_A
*935 ANTENNA_output22_A
*936 ANTENNA_output23_A
*937 ANTENNA_output24_A
*938 ANTENNA_output25_A
*939 ANTENNA_output26_A
*940 ANTENNA_output27_A
*941 ANTENNA_output28_A
*942 ANTENNA_output31_A
*943 ANTENNA_output32_A
*944 ANTENNA_output33_A
*945 ANTENNA_output34_A
*946 ANTENNA_output35_A
*947 ANTENNA_output36_A
*948 FILLER_0_1001
*949 FILLER_0_1005
*950 FILLER_0_1007
*951 FILLER_0_1012
*952 FILLER_0_1019
*953 FILLER_0_1027
*954 FILLER_0_1035
*955 FILLER_0_1037
*956 FILLER_0_1045
*957 FILLER_0_1053
*958 FILLER_0_1060
*959 FILLER_0_1065
*960 FILLER_0_1069
*961 FILLER_0_107
*962 FILLER_0_1074
*963 FILLER_0_1081
*964 FILLER_0_1089
*965 FILLER_0_1091
*966 FILLER_0_1096
*967 FILLER_0_1107
*968 FILLER_0_111
*969 FILLER_0_1111
*970 FILLER_0_1116
*971 FILLER_0_1124
*972 FILLER_0_1128
*973 FILLER_0_1133
*974 FILLER_0_1141
*975 FILLER_0_1145
*976 FILLER_0_1147
*977 FILLER_0_1149
*978 FILLER_0_1157
*979 FILLER_0_116
*980 FILLER_0_1165
*981 FILLER_0_1172
*982 FILLER_0_1177
*983 FILLER_0_1184
*984 FILLER_0_1192
*985 FILLER_0_1196
*986 FILLER_0_1208
*987 FILLER_0_1216
*988 FILLER_0_1220
*989 FILLER_0_1228
*990 FILLER_0_123
*991 FILLER_0_1236
*992 FILLER_0_1243
*993 FILLER_0_1251
*994 FILLER_0_1255
*995 FILLER_0_1259
*996 FILLER_0_1261
*997 FILLER_0_1263
*998 FILLER_0_1267
*999 FILLER_0_1275
*1000 FILLER_0_1279
*1001 FILLER_0_1287
*1002 FILLER_0_1292
*1003 FILLER_0_1296
*1004 FILLER_0_1298
*1005 FILLER_0_1302
*1006 FILLER_0_131
*1007 FILLER_0_1310
*1008 FILLER_0_1314
*1009 FILLER_0_1320
*1010 FILLER_0_1327
*1011 FILLER_0_1338
*1012 FILLER_0_1342
*1013 FILLER_0_1345
*1014 FILLER_0_135
*1015 FILLER_0_1350
*1016 FILLER_0_1358
*1017 FILLER_0_1362
*1018 FILLER_0_1370
*1019 FILLER_0_1376
*1020 FILLER_0_1380
*1021 FILLER_0_1385
*1022 FILLER_0_139
*1023 FILLER_0_1393
*1024 FILLER_0_1397
*1025 FILLER_0_1399
*1026 FILLER_0_14
*1027 FILLER_0_1404
*1028 FILLER_0_141
*1029 FILLER_0_1411
*1030 FILLER_0_1415
*1031 FILLER_0_1417
*1032 FILLER_0_1421
*1033 FILLER_0_1425
*1034 FILLER_0_1427
*1035 FILLER_0_1429
*1036 FILLER_0_1433
*1037 FILLER_0_1444
*1038 FILLER_0_1452
*1039 FILLER_0_146
*1040 FILLER_0_1460
*1041 FILLER_0_1464
*1042 FILLER_0_1468
*1043 FILLER_0_1476
*1044 FILLER_0_1480
*1045 FILLER_0_1485
*1046 FILLER_0_1492
*1047 FILLER_0_1500
*1048 FILLER_0_1504
*1049 FILLER_0_1516
*1050 FILLER_0_1527
*1051 FILLER_0_1535
*1052 FILLER_0_1539
*1053 FILLER_0_154
*1054 FILLER_0_1544
*1055 FILLER_0_1551
*1056 FILLER_0_1559
*1057 FILLER_0_1563
*1058 FILLER_0_1567
*1059 FILLER_0_1569
*1060 FILLER_0_1571
*1061 FILLER_0_1575
*1062 FILLER_0_158
*1063 FILLER_0_1583
*1064 FILLER_0_1587
*1065 FILLER_0_1595
*1066 FILLER_0_1600
*1067 FILLER_0_1604
*1068 FILLER_0_1606
*1069 FILLER_0_1610
*1070 FILLER_0_1618
*1071 FILLER_0_1622
*1072 FILLER_0_1628
*1073 FILLER_0_1635
*1074 FILLER_0_1646
*1075 FILLER_0_1650
*1076 FILLER_0_1653
*1077 FILLER_0_1658
*1078 FILLER_0_166
*1079 FILLER_0_1669
*1080 FILLER_0_1677
*1081 FILLER_0_1679
*1082 FILLER_0_1684
*1083 FILLER_0_1688
*1084 FILLER_0_1693
*1085 FILLER_0_1701
*1086 FILLER_0_1705
*1087 FILLER_0_1707
*1088 FILLER_0_1712
*1089 FILLER_0_1719
*1090 FILLER_0_172
*1091 FILLER_0_1723
*1092 FILLER_0_1725
*1093 FILLER_0_1729
*1094 FILLER_0_1733
*1095 FILLER_0_1735
*1096 FILLER_0_1740
*1097 FILLER_0_1748
*1098 FILLER_0_1752
*1099 FILLER_0_176
*1100 FILLER_0_1760
*1101 FILLER_0_1768
*1102 FILLER_0_1772
*1103 FILLER_0_1776
*1104 FILLER_0_178
*1105 FILLER_0_1784
*1106 FILLER_0_1788
*1107 FILLER_0_1793
*1108 FILLER_0_18
*1109 FILLER_0_1800
*1110 FILLER_0_1811
*1111 FILLER_0_1819
*1112 FILLER_0_182
*1113 FILLER_0_1824
*1114 FILLER_0_1835
*1115 FILLER_0_1843
*1116 FILLER_0_1847
*1117 FILLER_0_1852
*1118 FILLER_0_1859
*1119 FILLER_0_1867
*1120 FILLER_0_1871
*1121 FILLER_0_1875
*1122 FILLER_0_1877
*1123 FILLER_0_1882
*1124 FILLER_0_1890
*1125 FILLER_0_1894
*1126 FILLER_0_190
*1127 FILLER_0_1902
*1128 FILLER_0_1908
*1129 FILLER_0_1912
*1130 FILLER_0_1914
*1131 FILLER_0_1918
*1132 FILLER_0_1925
*1133 FILLER_0_194
*1134 FILLER_0_20
*1135 FILLER_0_200
*1136 FILLER_0_207
*1137 FILLER_0_211
*1138 FILLER_0_213
*1139 FILLER_0_217
*1140 FILLER_0_221
*1141 FILLER_0_223
*1142 FILLER_0_225
*1143 FILLER_0_229
*1144 FILLER_0_237
*1145 FILLER_0_24
*1146 FILLER_0_241
*1147 FILLER_0_249
*1148 FILLER_0_251
*1149 FILLER_0_256
*1150 FILLER_0_260
*1151 FILLER_0_265
*1152 FILLER_0_273
*1153 FILLER_0_277
*1154 FILLER_0_279
*1155 FILLER_0_284
*1156 FILLER_0_29
*1157 FILLER_0_291
*1158 FILLER_0_295
*1159 FILLER_0_300
*1160 FILLER_0_312
*1161 FILLER_0_320
*1162 FILLER_0_324
*1163 FILLER_0_332
*1164 FILLER_0_340
*1165 FILLER_0_344
*1166 FILLER_0_348
*1167 FILLER_0_359
*1168 FILLER_0_363
*1169 FILLER_0_365
*1170 FILLER_0_367
*1171 FILLER_0_371
*1172 FILLER_0_379
*1173 FILLER_0_383
*1174 FILLER_0_391
*1175 FILLER_0_396
*1176 FILLER_0_40
*1177 FILLER_0_407
*1178 FILLER_0_411
*1179 FILLER_0_415
*1180 FILLER_0_419
*1181 FILLER_0_421
*1182 FILLER_0_423
*1183 FILLER_0_427
*1184 FILLER_0_438
*1185 FILLER_0_446
*1186 FILLER_0_452
*1187 FILLER_0_456
*1188 FILLER_0_458
*1189 FILLER_0_462
*1190 FILLER_0_470
*1191 FILLER_0_474
*1192 FILLER_0_48
*1193 FILLER_0_480
*1194 FILLER_0_487
*1195 FILLER_0_498
*1196 FILLER_0_502
*1197 FILLER_0_505
*1198 FILLER_0_509
*1199 FILLER_0_517
*1200 FILLER_0_521
*1201 FILLER_0_529
*1202 FILLER_0_531
*1203 FILLER_0_536
*1204 FILLER_0_540
*1205 FILLER_0_545
*1206 FILLER_0_553
*1207 FILLER_0_557
*1208 FILLER_0_559
*1209 FILLER_0_564
*1210 FILLER_0_571
*1211 FILLER_0_575
*1212 FILLER_0_580
*1213 FILLER_0_592
*1214 FILLER_0_6
*1215 FILLER_0_60
*1216 FILLER_0_600
*1217 FILLER_0_604
*1218 FILLER_0_612
*1219 FILLER_0_620
*1220 FILLER_0_624
*1221 FILLER_0_628
*1222 FILLER_0_636
*1223 FILLER_0_640
*1224 FILLER_0_645
*1225 FILLER_0_647
*1226 FILLER_0_651
*1227 FILLER_0_659
*1228 FILLER_0_663
*1229 FILLER_0_671
*1230 FILLER_0_676
*1231 FILLER_0_687
*1232 FILLER_0_695
*1233 FILLER_0_699
*1234 FILLER_0_704
*1235 FILLER_0_71
*1236 FILLER_0_711
*1237 FILLER_0_722
*1238 FILLER_0_726
*1239 FILLER_0_729
*1240 FILLER_0_734
*1241 FILLER_0_742
*1242 FILLER_0_746
*1243 FILLER_0_754
*1244 FILLER_0_760
*1245 FILLER_0_764
*1246 FILLER_0_766
*1247 FILLER_0_770
*1248 FILLER_0_778
*1249 FILLER_0_782
*1250 FILLER_0_788
*1251 FILLER_0_79
*1252 FILLER_0_796
*1253 FILLER_0_804
*1254 FILLER_0_813
*1255 FILLER_0_817
*1256 FILLER_0_822
*1257 FILLER_0_83
*1258 FILLER_0_830
*1259 FILLER_0_834
*1260 FILLER_0_838
*1261 FILLER_0_841
*1262 FILLER_0_849
*1263 FILLER_0_857
*1264 FILLER_0_865
*1265 FILLER_0_867
*1266 FILLER_0_869
*1267 FILLER_0_874
*1268 FILLER_0_878
*1269 FILLER_0_88
*1270 FILLER_0_882
*1271 FILLER_0_890
*1272 FILLER_0_894
*1273 FILLER_0_900
*1274 FILLER_0_908
*1275 FILLER_0_916
*1276 FILLER_0_928
*1277 FILLER_0_935
*1278 FILLER_0_942
*1279 FILLER_0_950
*1280 FILLER_0_956
*1281 FILLER_0_963
*1282 FILLER_0_969
*1283 FILLER_0_977
*1284 FILLER_0_979
*1285 FILLER_0_981
*1286 FILLER_0_985
*1287 FILLER_0_99
*1288 FILLER_0_990
*1289 FILLER_100_1005
*1290 FILLER_100_101
*1291 FILLER_100_1013
*1292 FILLER_100_1021
*1293 FILLER_100_1029
*1294 FILLER_100_1033
*1295 FILLER_100_1035
*1296 FILLER_100_1037
*1297 FILLER_100_1045
*1298 FILLER_100_1053
*1299 FILLER_100_1061
*1300 FILLER_100_1069
*1301 FILLER_100_1077
*1302 FILLER_100_1085
*1303 FILLER_100_1089
*1304 FILLER_100_109
*1305 FILLER_100_1091
*1306 FILLER_100_1093
*1307 FILLER_100_11
*1308 FILLER_100_1101
*1309 FILLER_100_1109
*1310 FILLER_100_1117
*1311 FILLER_100_1125
*1312 FILLER_100_1133
*1313 FILLER_100_1141
*1314 FILLER_100_1145
*1315 FILLER_100_1147
*1316 FILLER_100_1149
*1317 FILLER_100_1157
*1318 FILLER_100_1165
*1319 FILLER_100_117
*1320 FILLER_100_1173
*1321 FILLER_100_1181
*1322 FILLER_100_1189
*1323 FILLER_100_1197
*1324 FILLER_100_1201
*1325 FILLER_100_1203
*1326 FILLER_100_1205
*1327 FILLER_100_1213
*1328 FILLER_100_1221
*1329 FILLER_100_1229
*1330 FILLER_100_1237
*1331 FILLER_100_1245
*1332 FILLER_100_125
*1333 FILLER_100_1253
*1334 FILLER_100_1257
*1335 FILLER_100_1259
*1336 FILLER_100_1261
*1337 FILLER_100_1269
*1338 FILLER_100_1277
*1339 FILLER_100_1285
*1340 FILLER_100_1293
*1341 FILLER_100_1301
*1342 FILLER_100_1309
*1343 FILLER_100_1313
*1344 FILLER_100_1315
*1345 FILLER_100_1317
*1346 FILLER_100_1325
*1347 FILLER_100_133
*1348 FILLER_100_1333
*1349 FILLER_100_1341
*1350 FILLER_100_1349
*1351 FILLER_100_1357
*1352 FILLER_100_1365
*1353 FILLER_100_1369
*1354 FILLER_100_137
*1355 FILLER_100_1371
*1356 FILLER_100_1373
*1357 FILLER_100_1381
*1358 FILLER_100_1389
*1359 FILLER_100_139
*1360 FILLER_100_1397
*1361 FILLER_100_1405
*1362 FILLER_100_141
*1363 FILLER_100_1413
*1364 FILLER_100_1421
*1365 FILLER_100_1425
*1366 FILLER_100_1427
*1367 FILLER_100_1429
*1368 FILLER_100_1437
*1369 FILLER_100_1445
*1370 FILLER_100_1453
*1371 FILLER_100_1461
*1372 FILLER_100_1469
*1373 FILLER_100_1477
*1374 FILLER_100_1481
*1375 FILLER_100_1483
*1376 FILLER_100_1485
*1377 FILLER_100_149
*1378 FILLER_100_1493
*1379 FILLER_100_1501
*1380 FILLER_100_1509
*1381 FILLER_100_1517
*1382 FILLER_100_1525
*1383 FILLER_100_1533
*1384 FILLER_100_1537
*1385 FILLER_100_1539
*1386 FILLER_100_1541
*1387 FILLER_100_1549
*1388 FILLER_100_1557
*1389 FILLER_100_1565
*1390 FILLER_100_157
*1391 FILLER_100_1573
*1392 FILLER_100_1581
*1393 FILLER_100_1589
*1394 FILLER_100_1593
*1395 FILLER_100_1595
*1396 FILLER_100_1597
*1397 FILLER_100_1605
*1398 FILLER_100_1613
*1399 FILLER_100_1621
*1400 FILLER_100_1629
*1401 FILLER_100_1637
*1402 FILLER_100_1645
*1403 FILLER_100_1649
*1404 FILLER_100_165
*1405 FILLER_100_1651
*1406 FILLER_100_1653
*1407 FILLER_100_1661
*1408 FILLER_100_1669
*1409 FILLER_100_1677
*1410 FILLER_100_1685
*1411 FILLER_100_1693
*1412 FILLER_100_1701
*1413 FILLER_100_1705
*1414 FILLER_100_1707
*1415 FILLER_100_1709
*1416 FILLER_100_1717
*1417 FILLER_100_1725
*1418 FILLER_100_173
*1419 FILLER_100_1733
*1420 FILLER_100_1741
*1421 FILLER_100_1749
*1422 FILLER_100_1757
*1423 FILLER_100_1761
*1424 FILLER_100_1763
*1425 FILLER_100_1765
*1426 FILLER_100_1773
*1427 FILLER_100_1781
*1428 FILLER_100_1789
*1429 FILLER_100_1797
*1430 FILLER_100_1805
*1431 FILLER_100_181
*1432 FILLER_100_1813
*1433 FILLER_100_1817
*1434 FILLER_100_1819
*1435 FILLER_100_1821
*1436 FILLER_100_1829
*1437 FILLER_100_1837
*1438 FILLER_100_1845
*1439 FILLER_100_1853
*1440 FILLER_100_1861
*1441 FILLER_100_1869
*1442 FILLER_100_1873
*1443 FILLER_100_1875
*1444 FILLER_100_1877
*1445 FILLER_100_1885
*1446 FILLER_100_189
*1447 FILLER_100_1893
*1448 FILLER_100_19
*1449 FILLER_100_1901
*1450 FILLER_100_1909
*1451 FILLER_100_1917
*1452 FILLER_100_1925
*1453 FILLER_100_193
*1454 FILLER_100_195
*1455 FILLER_100_197
*1456 FILLER_100_205
*1457 FILLER_100_213
*1458 FILLER_100_221
*1459 FILLER_100_229
*1460 FILLER_100_237
*1461 FILLER_100_245
*1462 FILLER_100_249
*1463 FILLER_100_251
*1464 FILLER_100_253
*1465 FILLER_100_261
*1466 FILLER_100_269
*1467 FILLER_100_27
*1468 FILLER_100_277
*1469 FILLER_100_285
*1470 FILLER_100_29
*1471 FILLER_100_293
*1472 FILLER_100_3
*1473 FILLER_100_301
*1474 FILLER_100_305
*1475 FILLER_100_307
*1476 FILLER_100_309
*1477 FILLER_100_317
*1478 FILLER_100_325
*1479 FILLER_100_333
*1480 FILLER_100_341
*1481 FILLER_100_349
*1482 FILLER_100_357
*1483 FILLER_100_361
*1484 FILLER_100_363
*1485 FILLER_100_365
*1486 FILLER_100_37
*1487 FILLER_100_373
*1488 FILLER_100_381
*1489 FILLER_100_389
*1490 FILLER_100_397
*1491 FILLER_100_405
*1492 FILLER_100_413
*1493 FILLER_100_417
*1494 FILLER_100_419
*1495 FILLER_100_421
*1496 FILLER_100_429
*1497 FILLER_100_437
*1498 FILLER_100_445
*1499 FILLER_100_45
*1500 FILLER_100_453
*1501 FILLER_100_461
*1502 FILLER_100_469
*1503 FILLER_100_473
*1504 FILLER_100_475
*1505 FILLER_100_477
*1506 FILLER_100_485
*1507 FILLER_100_493
*1508 FILLER_100_501
*1509 FILLER_100_509
*1510 FILLER_100_517
*1511 FILLER_100_525
*1512 FILLER_100_529
*1513 FILLER_100_53
*1514 FILLER_100_531
*1515 FILLER_100_533
*1516 FILLER_100_541
*1517 FILLER_100_549
*1518 FILLER_100_557
*1519 FILLER_100_565
*1520 FILLER_100_573
*1521 FILLER_100_581
*1522 FILLER_100_585
*1523 FILLER_100_587
*1524 FILLER_100_589
*1525 FILLER_100_597
*1526 FILLER_100_605
*1527 FILLER_100_61
*1528 FILLER_100_613
*1529 FILLER_100_621
*1530 FILLER_100_629
*1531 FILLER_100_637
*1532 FILLER_100_641
*1533 FILLER_100_643
*1534 FILLER_100_645
*1535 FILLER_100_653
*1536 FILLER_100_661
*1537 FILLER_100_669
*1538 FILLER_100_677
*1539 FILLER_100_685
*1540 FILLER_100_69
*1541 FILLER_100_693
*1542 FILLER_100_697
*1543 FILLER_100_699
*1544 FILLER_100_701
*1545 FILLER_100_709
*1546 FILLER_100_717
*1547 FILLER_100_725
*1548 FILLER_100_733
*1549 FILLER_100_741
*1550 FILLER_100_749
*1551 FILLER_100_753
*1552 FILLER_100_755
*1553 FILLER_100_757
*1554 FILLER_100_765
*1555 FILLER_100_77
*1556 FILLER_100_773
*1557 FILLER_100_781
*1558 FILLER_100_789
*1559 FILLER_100_797
*1560 FILLER_100_805
*1561 FILLER_100_809
*1562 FILLER_100_81
*1563 FILLER_100_811
*1564 FILLER_100_813
*1565 FILLER_100_821
*1566 FILLER_100_829
*1567 FILLER_100_83
*1568 FILLER_100_837
*1569 FILLER_100_845
*1570 FILLER_100_85
*1571 FILLER_100_853
*1572 FILLER_100_861
*1573 FILLER_100_865
*1574 FILLER_100_867
*1575 FILLER_100_869
*1576 FILLER_100_877
*1577 FILLER_100_885
*1578 FILLER_100_893
*1579 FILLER_100_901
*1580 FILLER_100_909
*1581 FILLER_100_917
*1582 FILLER_100_921
*1583 FILLER_100_923
*1584 FILLER_100_925
*1585 FILLER_100_93
*1586 FILLER_100_933
*1587 FILLER_100_941
*1588 FILLER_100_949
*1589 FILLER_100_957
*1590 FILLER_100_965
*1591 FILLER_100_973
*1592 FILLER_100_977
*1593 FILLER_100_979
*1594 FILLER_100_981
*1595 FILLER_100_989
*1596 FILLER_100_997
*1597 FILLER_101_1001
*1598 FILLER_101_1005
*1599 FILLER_101_1007
*1600 FILLER_101_1009
*1601 FILLER_101_1017
*1602 FILLER_101_1025
*1603 FILLER_101_1033
*1604 FILLER_101_1041
*1605 FILLER_101_1049
*1606 FILLER_101_105
*1607 FILLER_101_1057
*1608 FILLER_101_1061
*1609 FILLER_101_1063
*1610 FILLER_101_1065
*1611 FILLER_101_1073
*1612 FILLER_101_1081
*1613 FILLER_101_1089
*1614 FILLER_101_109
*1615 FILLER_101_1097
*1616 FILLER_101_11
*1617 FILLER_101_1105
*1618 FILLER_101_111
*1619 FILLER_101_1113
*1620 FILLER_101_1117
*1621 FILLER_101_1119
*1622 FILLER_101_1121
*1623 FILLER_101_1129
*1624 FILLER_101_113
*1625 FILLER_101_1137
*1626 FILLER_101_1145
*1627 FILLER_101_1153
*1628 FILLER_101_1161
*1629 FILLER_101_1169
*1630 FILLER_101_1173
*1631 FILLER_101_1175
*1632 FILLER_101_1177
*1633 FILLER_101_1185
*1634 FILLER_101_1193
*1635 FILLER_101_1201
*1636 FILLER_101_1209
*1637 FILLER_101_121
*1638 FILLER_101_1217
*1639 FILLER_101_1225
*1640 FILLER_101_1229
*1641 FILLER_101_1231
*1642 FILLER_101_1233
*1643 FILLER_101_1241
*1644 FILLER_101_1249
*1645 FILLER_101_1257
*1646 FILLER_101_1265
*1647 FILLER_101_1273
*1648 FILLER_101_1281
*1649 FILLER_101_1285
*1650 FILLER_101_1287
*1651 FILLER_101_1289
*1652 FILLER_101_129
*1653 FILLER_101_1297
*1654 FILLER_101_1305
*1655 FILLER_101_1313
*1656 FILLER_101_1321
*1657 FILLER_101_1329
*1658 FILLER_101_1337
*1659 FILLER_101_1341
*1660 FILLER_101_1343
*1661 FILLER_101_1345
*1662 FILLER_101_1353
*1663 FILLER_101_1361
*1664 FILLER_101_1369
*1665 FILLER_101_137
*1666 FILLER_101_1377
*1667 FILLER_101_1385
*1668 FILLER_101_1393
*1669 FILLER_101_1397
*1670 FILLER_101_1399
*1671 FILLER_101_1401
*1672 FILLER_101_1409
*1673 FILLER_101_1417