*SPEF "ieee 1481-1999"
*DESIGN "macro_la"
*DATE "11:11:11 Fri 11 11, 1111"
*VENDOR "OpenRCX"
*PROGRAM "Parallel Extraction"
*VERSION "1.0"
*DESIGN_FLOW "NAME_SCOPE LOCAL" "PIN_CAP NONE"
*DIVIDER /
*DELIMITER :
*BUS_DELIMITER []
*T_UNIT 1 NS
*C_UNIT 1 PF
*R_UNIT 1 OHM
*L_UNIT 1 HENRY

*NAME_MAP
*1 active
*2 analog_io[0]
*3 analog_io[10]
*4 analog_io[11]
*5 analog_io[12]
*6 analog_io[13]
*7 analog_io[14]
*8 analog_io[15]
*9 analog_io[16]
*10 analog_io[17]
*11 analog_io[18]
*12 analog_io[19]
*13 analog_io[1]
*14 analog_io[20]
*15 analog_io[21]
*16 analog_io[22]
*17 analog_io[23]
*18 analog_io[24]
*19 analog_io[25]
*20 analog_io[26]
*21 analog_io[27]
*22 analog_io[28]
*23 analog_io[2]
*24 analog_io[3]
*25 analog_io[4]
*26 analog_io[5]
*27 analog_io[6]
*28 analog_io[7]
*29 analog_io[8]
*30 analog_io[9]
*31 io_in[0]
*32 io_in[10]
*33 io_in[11]
*34 io_in[12]
*35 io_in[13]
*36 io_in[14]
*37 io_in[15]
*38 io_in[16]
*39 io_in[17]
*40 io_in[18]
*41 io_in[19]
*42 io_in[1]
*43 io_in[20]
*44 io_in[21]
*45 io_in[22]
*46 io_in[23]
*47 io_in[24]
*48 io_in[25]
*49 io_in[26]
*50 io_in[27]
*51 io_in[28]
*52 io_in[29]
*53 io_in[2]
*54 io_in[30]
*55 io_in[31]
*56 io_in[32]
*57 io_in[33]
*58 io_in[34]
*59 io_in[35]
*60 io_in[36]
*61 io_in[37]
*62 io_in[3]
*63 io_in[4]
*64 io_in[5]
*65 io_in[6]
*66 io_in[7]
*67 io_in[8]
*68 io_in[9]
*69 net234
*70 net244
*71 net245
*72 net246
*73 net247
*74 net248
*75 net249
*76 net250
*77 net251
*78 net252
*79 net253
*80 net235
*81 net254
*82 net255
*83 net256
*84 net257
*85 net258
*86 net259
*87 net260
*88 net261
*89 net37
*90 net38
*91 net236
*92 net39
*93 net40
*94 net41
*95 net42
*96 net43
*97 net44
*98 net45
*99 net46
*100 net237
*101 net238
*102 net239
*103 net240
*104 net241
*105 net242
*106 net243
*107 io_out[0]
*108 io_out[10]
*109 io_out[11]
*110 io_out[12]
*111 io_out[13]
*112 io_out[14]
*113 io_out[15]
*114 io_out[16]
*115 io_out[17]
*116 net50
*117 net51
*118 net47
*119 net52
*120 net53
*121 net54
*122 net55
*123 net56
*124 net57
*125 net58
*126 net59
*127 net60
*128 net61
*129 net48
*130 net62
*131 net63
*132 net64
*133 net65
*134 net66
*135 net67
*136 net68
*137 net69
*138 net49
*139 io_out[4]
*140 io_out[5]
*141 io_out[6]
*142 io_out[7]
*143 io_out[8]
*144 io_out[9]
*145 la_data_in[0]
*146 la_data_in[100]
*147 la_data_in[101]
*148 la_data_in[102]
*149 la_data_in[103]
*150 la_data_in[104]
*151 la_data_in[105]
*152 la_data_in[106]
*153 la_data_in[107]
*154 la_data_in[108]
*155 la_data_in[109]
*156 la_data_in[10]
*157 la_data_in[110]
*158 la_data_in[111]
*159 la_data_in[112]
*160 la_data_in[113]
*161 la_data_in[114]
*162 la_data_in[115]
*163 la_data_in[116]
*164 la_data_in[117]
*165 la_data_in[118]
*166 la_data_in[119]
*167 la_data_in[11]
*168 la_data_in[120]
*169 la_data_in[121]
*170 la_data_in[122]
*171 la_data_in[123]
*172 la_data_in[124]
*173 la_data_in[125]
*174 la_data_in[126]
*175 la_data_in[127]
*176 la_data_in[12]
*177 la_data_in[13]
*178 la_data_in[14]
*179 la_data_in[15]
*180 la_data_in[16]
*181 la_data_in[17]
*182 la_data_in[18]
*183 la_data_in[19]
*184 la_data_in[1]
*185 la_data_in[20]
*186 la_data_in[21]
*187 la_data_in[22]
*188 la_data_in[23]
*189 la_data_in[24]
*190 la_data_in[25]
*191 la_data_in[26]
*192 la_data_in[27]
*193 la_data_in[28]
*194 la_data_in[29]
*195 la_data_in[2]
*196 la_data_in[30]
*197 la_data_in[31]
*198 la_data_in[32]
*199 la_data_in[33]
*200 la_data_in[34]
*201 la_data_in[35]
*202 la_data_in[36]
*203 la_data_in[37]
*204 la_data_in[38]
*205 la_data_in[39]
*206 la_data_in[3]
*207 la_data_in[40]
*208 la_data_in[41]
*209 la_data_in[42]
*210 la_data_in[43]
*211 la_data_in[44]
*212 la_data_in[45]
*213 la_data_in[46]
*214 la_data_in[47]
*215 la_data_in[48]
*216 la_data_in[49]
*217 la_data_in[4]
*218 la_data_in[50]
*219 la_data_in[51]
*220 la_data_in[52]
*221 la_data_in[53]
*222 la_data_in[54]
*223 la_data_in[55]
*224 la_data_in[56]
*225 la_data_in[57]
*226 la_data_in[58]
*227 la_data_in[59]
*228 la_data_in[5]
*229 la_data_in[60]
*230 la_data_in[61]
*231 la_data_in[62]
*232 la_data_in[63]
*233 la_data_in[64]
*234 la_data_in[65]
*235 la_data_in[66]
*236 la_data_in[67]
*237 la_data_in[68]
*238 la_data_in[69]
*239 la_data_in[6]
*240 la_data_in[70]
*241 la_data_in[71]
*242 la_data_in[72]
*243 la_data_in[73]
*244 la_data_in[74]
*245 la_data_in[75]
*246 la_data_in[76]
*247 la_data_in[77]
*248 la_data_in[78]
*249 la_data_in[79]
*250 la_data_in[7]
*251 la_data_in[80]
*252 la_data_in[81]
*253 la_data_in[82]
*254 la_data_in[83]
*255 la_data_in[84]
*256 la_data_in[85]
*257 la_data_in[86]
*258 la_data_in[87]
*259 la_data_in[88]
*260 la_data_in[89]
*261 la_data_in[8]
*262 la_data_in[90]
*263 la_data_in[91]
*264 la_data_in[92]
*265 la_data_in[93]
*266 la_data_in[94]
*267 la_data_in[95]
*268 la_data_in[96]
*269 la_data_in[97]
*270 la_data_in[98]
*271 la_data_in[99]
*272 la_data_in[9]
*273 net70
*274 net138
*275 net139
*276 net140
*277 net141
*278 net142
*279 net143
*280 net144
*281 net145
*282 net146
*283 net147
*284 net80
*285 net148
*286 net149
*287 net150
*288 net151
*289 net152
*290 net153
*291 net154
*292 net155
*293 net156
*294 net157
*295 net81
*296 net158
*297 net159
*298 net160
*299 net161
*300 net162
*301 net163
*302 net164
*303 net165
*304 net82
*305 net83
*306 net84
*307 net85
*308 net86
*309 net87
*310 net88
*311 net89
*312 net71
*313 net90
*314 net91
*315 net92
*316 net93
*317 net94
*318 net95
*319 net96
*320 net97
*321 net98
*322 net99
*323 net72
*324 net100
*325 net101
*326 la_data_out[32]
*327 la_data_out[33]
*328 la_data_out[34]
*329 la_data_out[35]
*330 la_data_out[36]
*331 la_data_out[37]
*332 la_data_out[38]
*333 la_data_out[39]
*334 net73
*335 la_data_out[40]
*336 la_data_out[41]
*337 la_data_out[42]
*338 la_data_out[43]
*339 la_data_out[44]
*340 la_data_out[45]
*341 la_data_out[46]
*342 la_data_out[47]
*343 la_data_out[48]
*344 la_data_out[49]
*345 net74
*346 la_data_out[50]
*347 la_data_out[51]
*348 la_data_out[52]
*349 la_data_out[53]
*350 la_data_out[54]
*351 la_data_out[55]
*352 la_data_out[56]
*353 la_data_out[57]
*354 la_data_out[58]
*355 la_data_out[59]
*356 net75
*357 la_data_out[60]
*358 la_data_out[61]
*359 la_data_out[62]
*360 la_data_out[63]
*361 net102
*362 net103
*363 net104
*364 net105
*365 net106
*366 net107
*367 net76
*368 net108
*369 net109
*370 net110
*371 net111
*372 net112
*373 net113
*374 net114
*375 net115
*376 net116
*377 net117
*378 net77
*379 net118
*380 net119
*381 net120
*382 net121
*383 net122
*384 net123
*385 net124
*386 net125
*387 net126
*388 net127
*389 net78
*390 net128
*391 net129
*392 net130
*393 net131
*394 net132
*395 net133
*396 net134
*397 net135
*398 net136
*399 net137
*400 net79
*401 la_oenb[0]
*402 la_oenb[100]
*403 la_oenb[101]
*404 la_oenb[102]
*405 la_oenb[103]
*406 la_oenb[104]
*407 la_oenb[105]
*408 la_oenb[106]
*409 la_oenb[107]
*410 la_oenb[108]
*411 la_oenb[109]
*412 la_oenb[10]
*413 la_oenb[110]
*414 la_oenb[111]
*415 la_oenb[112]
*416 la_oenb[113]
*417 la_oenb[114]
*418 la_oenb[115]
*419 la_oenb[116]
*420 la_oenb[117]
*421 la_oenb[118]
*422 la_oenb[119]
*423 la_oenb[11]
*424 la_oenb[120]
*425 la_oenb[121]
*426 la_oenb[122]
*427 la_oenb[123]
*428 la_oenb[124]
*429 la_oenb[125]
*430 la_oenb[126]
*431 la_oenb[127]
*432 la_oenb[12]
*433 la_oenb[13]
*434 la_oenb[14]
*435 la_oenb[15]
*436 la_oenb[16]
*437 la_oenb[17]
*438 la_oenb[18]
*439 la_oenb[19]
*440 la_oenb[1]
*441 la_oenb[20]
*442 la_oenb[21]
*443 la_oenb[22]
*444 la_oenb[23]
*445 la_oenb[24]
*446 la_oenb[25]
*447 la_oenb[26]
*448 la_oenb[27]
*449 la_oenb[28]
*450 la_oenb[29]
*451 la_oenb[2]
*452 la_oenb[30]
*453 la_oenb[31]
*454 la_oenb[32]
*455 la_oenb[33]
*456 la_oenb[34]
*457 la_oenb[35]
*458 la_oenb[36]
*459 la_oenb[37]
*460 la_oenb[38]
*461 la_oenb[39]
*462 la_oenb[3]
*463 la_oenb[40]
*464 la_oenb[41]
*465 la_oenb[42]
*466 la_oenb[43]
*467 la_oenb[44]
*468 la_oenb[45]
*469 la_oenb[46]
*470 la_oenb[47]
*471 la_oenb[48]
*472 la_oenb[49]
*473 la_oenb[4]
*474 la_oenb[50]
*475 la_oenb[51]
*476 la_oenb[52]
*477 la_oenb[53]
*478 la_oenb[54]
*479 la_oenb[55]
*480 la_oenb[56]
*481 la_oenb[57]
*482 la_oenb[58]
*483 la_oenb[59]
*484 la_oenb[5]
*485 la_oenb[60]
*486 la_oenb[61]
*487 la_oenb[62]
*488 la_oenb[63]
*489 la_oenb[64]
*490 la_oenb[65]
*491 la_oenb[66]
*492 la_oenb[67]
*493 la_oenb[68]
*494 la_oenb[69]
*495 la_oenb[6]
*496 la_oenb[70]
*497 la_oenb[71]
*498 la_oenb[72]
*499 la_oenb[73]
*500 la_oenb[74]
*501 la_oenb[75]
*502 la_oenb[76]
*503 la_oenb[77]
*504 la_oenb[78]
*505 la_oenb[79]
*506 la_oenb[7]
*507 la_oenb[80]
*508 la_oenb[81]
*509 la_oenb[82]
*510 la_oenb[83]
*511 la_oenb[84]
*512 la_oenb[85]
*513 la_oenb[86]
*514 la_oenb[87]
*515 la_oenb[88]
*516 la_oenb[89]
*517 la_oenb[8]
*518 la_oenb[90]
*519 la_oenb[91]
*520 la_oenb[92]
*521 la_oenb[93]
*522 la_oenb[94]
*523 la_oenb[95]
*524 la_oenb[96]
*525 la_oenb[97]
*526 la_oenb[98]
*527 la_oenb[99]
*528 la_oenb[9]
*529 user_clock2
*530 net166
*531 net167
*532 net168
*535 wb_clk_i
*536 wb_rst_i
*537 net169
*538 wbs_adr_i[0]
*539 wbs_adr_i[10]
*540 wbs_adr_i[11]
*541 wbs_adr_i[12]
*542 wbs_adr_i[13]
*543 wbs_adr_i[14]
*544 wbs_adr_i[15]
*545 wbs_adr_i[16]
*546 wbs_adr_i[17]
*547 wbs_adr_i[18]
*548 wbs_adr_i[19]
*549 wbs_adr_i[1]
*550 wbs_adr_i[20]
*551 wbs_adr_i[21]
*552 wbs_adr_i[22]
*553 wbs_adr_i[23]
*554 wbs_adr_i[24]
*555 wbs_adr_i[25]
*556 wbs_adr_i[26]
*557 wbs_adr_i[27]
*558 wbs_adr_i[28]
*559 wbs_adr_i[29]
*560 wbs_adr_i[2]
*561 wbs_adr_i[30]
*562 wbs_adr_i[31]
*563 wbs_adr_i[3]
*564 wbs_adr_i[4]
*565 wbs_adr_i[5]
*566 wbs_adr_i[6]
*567 wbs_adr_i[7]
*568 wbs_adr_i[8]
*569 wbs_adr_i[9]
*570 wbs_cyc_i
*571 wbs_dat_i[0]
*572 wbs_dat_i[10]
*573 wbs_dat_i[11]
*574 wbs_dat_i[12]
*575 wbs_dat_i[13]
*576 wbs_dat_i[14]
*577 wbs_dat_i[15]
*578 wbs_dat_i[16]
*579 wbs_dat_i[17]
*580 wbs_dat_i[18]
*581 wbs_dat_i[19]
*582 wbs_dat_i[1]
*583 wbs_dat_i[20]
*584 wbs_dat_i[21]
*585 wbs_dat_i[22]
*586 wbs_dat_i[23]
*587 wbs_dat_i[24]
*588 wbs_dat_i[25]
*589 wbs_dat_i[26]
*590 wbs_dat_i[27]
*591 wbs_dat_i[28]
*592 wbs_dat_i[29]
*593 wbs_dat_i[2]
*594 wbs_dat_i[30]
*595 wbs_dat_i[31]
*596 wbs_dat_i[3]
*597 wbs_dat_i[4]
*598 wbs_dat_i[5]
*599 wbs_dat_i[6]
*600 wbs_dat_i[7]
*601 wbs_dat_i[8]
*602 wbs_dat_i[9]
*603 net170
*604 net180
*605 net181
*606 net182
*607 net183
*608 net184
*609 net185
*610 net186
*611 net187
*612 net188
*613 net189
*614 net171
*615 net190
*616 net191
*617 net192
*618 net193
*619 net194
*620 net195
*621 net196
*622 net197
*623 net198
*624 net199
*625 net172
*626 net200
*627 net201
*628 net173
*629 net174
*630 net175
*631 net176
*632 net177
*633 net178
*634 net179
*635 wbs_sel_i[0]
*636 wbs_sel_i[1]
*637 wbs_sel_i[2]
*638 wbs_sel_i[3]
*639 wbs_stb_i
*640 wbs_we_i
*641 _000_
*642 _001_
*643 _002_
*644 _003_
*645 _004_
*646 _005_
*647 _006_
*648 _007_
*649 _008_
*650 _009_
*651 _010_
*652 _011_
*653 _012_
*654 _013_
*655 _014_
*656 _015_
*657 _016_
*658 _017_
*659 _018_
*660 _019_
*661 _020_
*662 _021_
*663 _022_
*664 _023_
*665 _024_
*666 _025_
*667 _026_
*668 _027_
*669 _028_
*670 _029_
*671 _030_
*672 _031_
*673 _032_
*674 _033_
*675 _034_
*676 _035_
*677 _036_
*678 _037_
*679 _038_
*680 _039_
*681 _040_
*682 _041_
*683 _042_
*684 _043_
*685 _044_
*686 _045_
*687 _046_
*688 _047_
*689 _048_
*690 _049_
*691 _050_
*692 _051_
*693 _052_
*694 _053_
*695 _054_
*696 _055_
*697 _056_
*698 _057_
*699 _058_
*700 _059_
*701 _060_
*702 _061_
*703 _062_
*704 _063_
*705 _064_
*706 _065_
*707 _066_
*708 _067_
*709 _068_
*710 _069_
*711 _070_
*712 _071_
*713 _072_
*714 _073_
*715 _074_
*716 _075_
*717 _076_
*718 _077_
*719 _078_
*720 _079_
*721 _080_
*722 _081_
*723 _082_
*724 _083_
*725 _084_
*726 _085_
*727 _086_
*728 _087_
*729 _088_
*730 _089_
*731 _090_
*732 _091_
*733 _092_
*734 _093_
*735 _094_
*736 _095_
*737 _096_
*738 _097_
*739 _098_
*740 _099_
*741 _100_
*742 _101_
*743 _102_
*744 _103_
*745 _104_
*746 _105_
*747 _106_
*748 _107_
*749 _108_
*750 _109_
*751 _110_
*752 _111_
*753 _112_
*754 _113_
*755 _114_
*756 _115_
*757 _116_
*758 _117_
*759 _118_
*760 _119_
*761 _120_
*762 _121_
*763 _122_
*764 _123_
*765 _124_
*766 _125_
*767 _126_
*768 _127_
*769 _128_
*770 _129_
*771 _130_
*772 _131_
*773 _132_
*774 _133_
*775 _134_
*776 _135_
*777 _136_
*778 _137_
*779 net1
*780 net10
*781 net11
*782 net12
*783 net13
*784 net14
*785 net15
*786 net16
*787 net17
*788 net18
*789 net19
*790 net2
*791 net20
*792 net202
*793 net203
*794 net204
*795 net205
*796 net206
*797 net207
*798 net208
*799 net209
*800 net21
*801 net210
*802 net211
*803 net212
*804 net213
*805 net214
*806 net215
*807 net216
*808 net217
*809 net218
*810 net219
*811 net22
*812 net220
*813 net221
*814 net222
*815 net223
*816 net224
*817 net225
*818 net226
*819 net227
*820 net228
*821 net229
*822 net23
*823 net230
*824 net231
*825 net232
*826 net233
*827 net24
*828 net25
*829 net26
*830 net27
*831 net28
*832 net29
*833 net3
*834 net30
*835 net31
*836 net32
*837 net33
*838 net34
*839 net35
*840 net36
*841 net4
*842 net5
*843 net6
*844 net7
*845 net8
*846 net9
*847 ANTENNA__170__A
*848 ANTENNA__171__A
*849 ANTENNA__172__A
*850 ANTENNA__197__A
*851 ANTENNA__203__A
*852 ANTENNA__210__A
*853 ANTENNA__211__A_N
*854 ANTENNA__211__B
*855 ANTENNA__212__A1
*856 ANTENNA__212__A2
*857 ANTENNA__213__A
*858 ANTENNA__215__A1
*859 ANTENNA__216__A
*860 ANTENNA__218__A
*861 ANTENNA__220__A1
*862 ANTENNA__220__B1_N
*863 ANTENNA__228__A1
*864 ANTENNA__230__A
*865 ANTENNA__233__A
*866 ANTENNA__234__A_N
*867 ANTENNA__234__B
*868 ANTENNA__235__A1
*869 ANTENNA__235__A2
*870 ANTENNA__236__A
*871 ANTENNA__237__A
*872 ANTENNA__238__A1
*873 ANTENNA__239__A
*874 ANTENNA__240__A
*875 ANTENNA__241__A
*876 ANTENNA__243__A1
*877 ANTENNA__243__B1_N
*878 ANTENNA__244__B1
*879 ANTENNA__245__A
*880 ANTENNA__246__A
*881 ANTENNA__248__A
*882 ANTENNA__249__A
*883 ANTENNA__251__A1
*884 ANTENNA__253__A
*885 ANTENNA__258__B1
*886 ANTENNA__258__B2
*887 ANTENNA__259__A
*888 ANTENNA__260__B2
*889 ANTENNA__263__A
*890 ANTENNA__264__A2_N
*891 ANTENNA__264__B2
*892 ANTENNA__265__A2
*893 ANTENNA__266__A3
*894 ANTENNA__267__A
*895 ANTENNA__270__A
*896 ANTENNA__272__B1
*897 ANTENNA__272__B2
*898 ANTENNA__275__A
*899 ANTENNA__276__A2
*900 ANTENNA__281__A
*901 ANTENNA__282__A2
*902 ANTENNA__282__B1
*903 ANTENNA__289__B1
*904 ANTENNA__289__B2
*905 ANTENNA__290__B1
*906 ANTENNA__294__B1
*907 ANTENNA__295__A1
*908 ANTENNA__296__A2
*909 ANTENNA__296__B1
*910 ANTENNA__297__B
*911 ANTENNA__298__A
*912 ANTENNA__306__B1
*913 ANTENNA__311__A1
*914 ANTENNA__312__A1
*915 ANTENNA__317__A1
*916 ANTENNA__317__B1
*917 ANTENNA__318__A1
*918 ANTENNA__321__C1
*919 ANTENNA__322__B1
*920 ANTENNA_input10_A
*921 ANTENNA_input11_A
*922 ANTENNA_input12_A
*923 ANTENNA_input13_A
*924 ANTENNA_input14_A
*925 ANTENNA_input15_A
*926 ANTENNA_input16_A
*927 ANTENNA_input17_A
*928 ANTENNA_input18_A
*929 ANTENNA_input19_A
*930 ANTENNA_input1_A
*931 ANTENNA_input20_A
*932 ANTENNA_input21_A
*933 ANTENNA_input2_A
*934 ANTENNA_input3_A
*935 ANTENNA_input4_A
*936 ANTENNA_input5_A
*937 ANTENNA_input6_A
*938 ANTENNA_input7_A
*939 ANTENNA_input8_A
*940 ANTENNA_input9_A
*941 ANTENNA_output22_A
*942 ANTENNA_output23_A
*943 ANTENNA_output24_A
*944 ANTENNA_output25_A
*945 ANTENNA_output26_A
*946 ANTENNA_output27_A
*947 ANTENNA_output28_A
*948 ANTENNA_output31_A
*949 ANTENNA_output32_A
*950 ANTENNA_output33_A
*951 ANTENNA_output34_A
*952 ANTENNA_output35_A
*953 ANTENNA_output36_A
*954 FILLER_0_1001
*955 FILLER_0_1006
*956 FILLER_0_1018
*957 FILLER_0_1024
*958 FILLER_0_1031
*959 FILLER_0_1036
*960 FILLER_0_1043
*961 FILLER_0_1049
*962 FILLER_0_1054
*963 FILLER_0_1061
*964 FILLER_0_1066
*965 FILLER_0_1078
*966 FILLER_0_1081
*967 FILLER_0_1085
*968 FILLER_0_1089
*969 FILLER_0_109
*970 FILLER_0_1096
*971 FILLER_0_1100
*972 FILLER_0_1104
*973 FILLER_0_1114
*974 FILLER_0_1122
*975 FILLER_0_1126
*976 FILLER_0_1138
*977 FILLER_0_1141
*978 FILLER_0_1153
*979 FILLER_0_1159
*980 FILLER_0_1166
*981 FILLER_0_117
*982 FILLER_0_1171
*983 FILLER_0_1177
*984 FILLER_0_1189
*985 FILLER_0_1197
*986 FILLER_0_1204
*987 FILLER_0_1212
*988 FILLER_0_1219
*989 FILLER_0_1226
*990 FILLER_0_1231
*991 FILLER_0_1235
*992 FILLER_0_124
*993 FILLER_0_1243
*994 FILLER_0_1249
*995 FILLER_0_1257
*996 FILLER_0_1264
*997 FILLER_0_1271
*998 FILLER_0_1276
*999 FILLER_0_1282
*1000 FILLER_0_1294
*1001 FILLER_0_1302
*1002 FILLER_0_1309
*1003 FILLER_0_1317
*1004 FILLER_0_132
*1005 FILLER_0_1324
*1006 FILLER_0_1331
*1007 FILLER_0_1336
*1008 FILLER_0_1340
*1009 FILLER_0_1348
*1010 FILLER_0_1354
*1011 FILLER_0_1362
*1012 FILLER_0_1369
*1013 FILLER_0_1376
*1014 FILLER_0_1381
*1015 FILLER_0_1386
*1016 FILLER_0_139
*1017 FILLER_0_1394
*1018 FILLER_0_1399
*1019 FILLER_0_14
*1020 FILLER_0_1407
*1021 FILLER_0_1414
*1022 FILLER_0_1421
*1023 FILLER_0_1426
*1024 FILLER_0_1433
*1025 FILLER_0_1439
*1026 FILLER_0_1441
*1027 FILLER_0_1445
*1028 FILLER_0_1453
*1029 FILLER_0_1459
*1030 FILLER_0_146
*1031 FILLER_0_1467
*1032 FILLER_0_1474
*1033 FILLER_0_1481
*1034 FILLER_0_1486
*1035 FILLER_0_1491
*1036 FILLER_0_1499
*1037 FILLER_0_1504
*1038 FILLER_0_151
*1039 FILLER_0_1512
*1040 FILLER_0_1519
*1041 FILLER_0_1526
*1042 FILLER_0_1531
*1043 FILLER_0_1538
*1044 FILLER_0_1544
*1045 FILLER_0_1546
*1046 FILLER_0_1550
*1047 FILLER_0_1558
*1048 FILLER_0_156
*1049 FILLER_0_1564
*1050 FILLER_0_1572
*1051 FILLER_0_1579
*1052 FILLER_0_1586
*1053 FILLER_0_1591
*1054 FILLER_0_1596
*1055 FILLER_0_16
*1056 FILLER_0_1604
*1057 FILLER_0_1609
*1058 FILLER_0_1617
*1059 FILLER_0_1624
*1060 FILLER_0_1631
*1061 FILLER_0_1636
*1062 FILLER_0_164
*1063 FILLER_0_1643
*1064 FILLER_0_1649
*1065 FILLER_0_1654
*1066 FILLER_0_1662
*1067 FILLER_0_1669
*1068 FILLER_0_1677
*1069 FILLER_0_1684
*1070 FILLER_0_169
*1071 FILLER_0_1691
*1072 FILLER_0_1696
*1073 FILLER_0_1701
*1074 FILLER_0_1709
*1075 FILLER_0_1714
*1076 FILLER_0_1722
*1077 FILLER_0_1729
*1078 FILLER_0_1736
*1079 FILLER_0_1741
*1080 FILLER_0_1748
*1081 FILLER_0_1754
*1082 FILLER_0_1759
*1083 FILLER_0_1767
*1084 FILLER_0_177
*1085 FILLER_0_1774
*1086 FILLER_0_1782
*1087 FILLER_0_1789
*1088 FILLER_0_1796
*1089 FILLER_0_1801
*1090 FILLER_0_1806
*1091 FILLER_0_1814
*1092 FILLER_0_1819
*1093 FILLER_0_1827
*1094 FILLER_0_1834
*1095 FILLER_0_184
*1096 FILLER_0_1841
*1097 FILLER_0_1846
*1098 FILLER_0_1852
*1099 FILLER_0_1864
*1100 FILLER_0_1872
*1101 FILLER_0_1879
*1102 FILLER_0_1887
*1103 FILLER_0_1894
*1104 FILLER_0_1902
*1105 FILLER_0_1909
*1106 FILLER_0_191
*1107 FILLER_0_1917
*1108 FILLER_0_1921
*1109 FILLER_0_196
*1110 FILLER_0_20
*1111 FILLER_0_202
*1112 FILLER_0_214
*1113 FILLER_0_222
*1114 FILLER_0_229
*1115 FILLER_0_237
*1116 FILLER_0_24
*1117 FILLER_0_244
*1118 FILLER_0_251
*1119 FILLER_0_256
*1120 FILLER_0_260
*1121 FILLER_0_268
*1122 FILLER_0_274
*1123 FILLER_0_282
*1124 FILLER_0_289
*1125 FILLER_0_296
*1126 FILLER_0_301
*1127 FILLER_0_307
*1128 FILLER_0_31
*1129 FILLER_0_319
*1130 FILLER_0_327
*1131 FILLER_0_334
*1132 FILLER_0_342
*1133 FILLER_0_349
*1134 FILLER_0_35
*1135 FILLER_0_356
*1136 FILLER_0_361
*1137 FILLER_0_365
*1138 FILLER_0_373
*1139 FILLER_0_379
*1140 FILLER_0_387
*1141 FILLER_0_39
*1142 FILLER_0_394
*1143 FILLER_0_401
*1144 FILLER_0_409
*1145 FILLER_0_417
*1146 FILLER_0_424
*1147 FILLER_0_431
*1148 FILLER_0_436
*1149 FILLER_0_443
*1150 FILLER_0_449
*1151 FILLER_0_451
*1152 FILLER_0_455
*1153 FILLER_0_46
*1154 FILLER_0_463
*1155 FILLER_0_469
*1156 FILLER_0_477
*1157 FILLER_0_484
*1158 FILLER_0_491
*1159 FILLER_0_496
*1160 FILLER_0_501
*1161 FILLER_0_509
*1162 FILLER_0_514
*1163 FILLER_0_522
*1164 FILLER_0_529
*1165 FILLER_0_536
*1166 FILLER_0_541
*1167 FILLER_0_548
*1168 FILLER_0_55
*1169 FILLER_0_554
*1170 FILLER_0_559
*1171 FILLER_0_567
*1172 FILLER_0_574
*1173 FILLER_0_582
*1174 FILLER_0_589
*1175 FILLER_0_59
*1176 FILLER_0_596
*1177 FILLER_0_6
*1178 FILLER_0_601
*1179 FILLER_0_606
*1180 FILLER_0_61
*1181 FILLER_0_614
*1182 FILLER_0_619
*1183 FILLER_0_627
*1184 FILLER_0_634
*1185 FILLER_0_641
*1186 FILLER_0_646
*1187 FILLER_0_653
*1188 FILLER_0_659
*1189 FILLER_0_664
*1190 FILLER_0_672
*1191 FILLER_0_679
*1192 FILLER_0_687
*1193 FILLER_0_694
*1194 FILLER_0_70
*1195 FILLER_0_701
*1196 FILLER_0_706
*1197 FILLER_0_711
*1198 FILLER_0_719
*1199 FILLER_0_724
*1200 FILLER_0_732
*1201 FILLER_0_739
*1202 FILLER_0_74
*1203 FILLER_0_746
*1204 FILLER_0_751
*1205 FILLER_0_757
*1206 FILLER_0_76
*1207 FILLER_0_769
*1208 FILLER_0_777
*1209 FILLER_0_781
*1210 FILLER_0_793
*1211 FILLER_0_796
*1212 FILLER_0_808
*1213 FILLER_0_814
*1214 FILLER_0_82
*1215 FILLER_0_821
*1216 FILLER_0_826
*1217 FILLER_0_832
*1218 FILLER_0_841
*1219 FILLER_0_853
*1220 FILLER_0_856
*1221 FILLER_0_86
*1222 FILLER_0_860
*1223 FILLER_0_868
*1224 FILLER_0_871
*1225 FILLER_0_878
*1226 FILLER_0_884
*1227 FILLER_0_889
*1228 FILLER_0_897
*1229 FILLER_0_901
*1230 FILLER_0_91
*1231 FILLER_0_910
*1232 FILLER_0_914
*1233 FILLER_0_919
*1234 FILLER_0_926
*1235 FILLER_0_931
*1236 FILLER_0_939
*1237 FILLER_0_946
*1238 FILLER_0_954
*1239 FILLER_0_961
*1240 FILLER_0_965
*1241 FILLER_0_97
*1242 FILLER_0_971
*1243 FILLER_0_976
*1244 FILLER_0_980
*1245 FILLER_0_984
*1246 FILLER_0_994
*1247 FILLER_100_100
*1248 FILLER_100_1000
*1249 FILLER_100_1004
*1250 FILLER_100_1006
*1251 FILLER_100_1018
*1252 FILLER_100_1030
*1253 FILLER_100_1034
*1254 FILLER_100_1036
*1255 FILLER_100_104
*1256 FILLER_100_1048
*1257 FILLER_100_106
*1258 FILLER_100_1060
*1259 FILLER_100_1064
*1260 FILLER_100_1066
*1261 FILLER_100_1078
*1262 FILLER_100_1090
*1263 FILLER_100_1094
*1264 FILLER_100_1096
*1265 FILLER_100_1108
*1266 FILLER_100_1120
*1267 FILLER_100_1124
*1268 FILLER_100_1126
*1269 FILLER_100_1138
*1270 FILLER_100_1150
*1271 FILLER_100_1154
*1272 FILLER_100_1156
*1273 FILLER_100_1168
*1274 FILLER_100_118
*1275 FILLER_100_1180
*1276 FILLER_100_1184
*1277 FILLER_100_1186
*1278 FILLER_100_1198
*1279 FILLER_100_1210
*1280 FILLER_100_1214
*1281 FILLER_100_1216
*1282 FILLER_100_1228
*1283 FILLER_100_1240
*1284 FILLER_100_1244
*1285 FILLER_100_1246
*1286 FILLER_100_1258
*1287 FILLER_100_1270
*1288 FILLER_100_1274
*1289 FILLER_100_1276
*1290 FILLER_100_1288
*1291 FILLER_100_130
*1292 FILLER_100_1300
*1293 FILLER_100_1304
*1294 FILLER_100_1306
*1295 FILLER_100_1318
*1296 FILLER_100_1330
*1297 FILLER_100_1334
*1298 FILLER_100_1336
*1299 FILLER_100_134
*1300 FILLER_100_1348
*1301 FILLER_100_136
*1302 FILLER_100_1360
*1303 FILLER_100_1364
*1304 FILLER_100_1366
*1305 FILLER_100_1378
*1306 FILLER_100_1390
*1307 FILLER_100_1394
*1308 FILLER_100_1396
*1309 FILLER_100_1408
*1310 FILLER_100_1420
*1311 FILLER_100_1424
*1312 FILLER_100_1426
*1313 FILLER_100_1438
*1314 FILLER_100_1450
*1315 FILLER_100_1454
*1316 FILLER_100_1456
*1317 FILLER_100_1468
*1318 FILLER_100_148
*1319 FILLER_100_1480
*1320 FILLER_100_1484
*1321 FILLER_100_1486
*1322 FILLER_100_1498
*1323 FILLER_100_1510
*1324 FILLER_100_1514
*1325 FILLER_100_1516
*1326 FILLER_100_1528
*1327 FILLER_100_1540
*1328 FILLER_100_1544
*1329 FILLER_100_1546
*1330 FILLER_100_1558
*1331 FILLER_100_1570
*1332 FILLER_100_1574
*1333 FILLER_100_1576
*1334 FILLER_100_1588
*1335 FILLER_100_16
*1336 FILLER_100_160
*1337 FILLER_100_1600
*1338 FILLER_100_1604
*1339 FILLER_100_1606
*1340 FILLER_100_1618
*1341 FILLER_100_1630
*1342 FILLER_100_1634
*1343 FILLER_100_1636
*1344 FILLER_100_164
*1345 FILLER_100_1648
*1346 FILLER_100_166
*1347 FILLER_100_1660
*1348 FILLER_100_1664
*1349 FILLER_100_1666
*1350 FILLER_100_1678
*1351 FILLER_100_1690
*1352 FILLER_100_1694
*1353 FILLER_100_1696
*1354 FILLER_100_1708
*1355 FILLER_100_1720
*1356 FILLER_100_1724
*1357 FILLER_100_1726
*1358 FILLER_100_1738
*1359 FILLER_100_1750
*1360 FILLER_100_1754
*1361 FILLER_100_1756
*1362 FILLER_100_1768
*1363 FILLER_100_178
*1364 FILLER_100_1780
*1365 FILLER_100_1784
*1366 FILLER_100_1786
*1367 FILLER_100_1798
*1368 FILLER_100_1810
*1369 FILLER_100_1814
*1370 FILLER_100_1816
*1371 FILLER_100_1828
*1372 FILLER_100_1840
*1373 FILLER_100_1844
*1374 FILLER_100_1846
*1375 FILLER_100_1858
*1376 FILLER_100_1870
*1377 FILLER_100_1874
*1378 FILLER_100_1876
*1379 FILLER_100_1888
*1380 FILLER_100_190
*1381 FILLER_100_1900
*1382 FILLER_100_1904
*1383 FILLER_100_1906
*1384 FILLER_100_1918
*1385 FILLER_100_1926
*1386 FILLER_100_194
*1387 FILLER_100_196
*1388 FILLER_100_208
*1389 FILLER_100_220
*1390 FILLER_100_224
*1391 FILLER_100_226
*1392 FILLER_100_238
*1393 FILLER_100_250
*1394 FILLER_100_254
*1395 FILLER_100_256
*1396 FILLER_100_268
*1397 FILLER_100_28
*1398 FILLER_100_280
*1399 FILLER_100_284
*1400 FILLER_100_286
*1401 FILLER_100_298
*1402 FILLER_100_3
*1403 FILLER_100_310
*1404 FILLER_100_314
*1405 FILLER_100_316
*1406 FILLER_100_328
*1407 FILLER_100_340
*1408 FILLER_100_344
*1409 FILLER_100_346
*1410 FILLER_100_358
*1411 FILLER_100_370
*1412 FILLER_100_374
*1413 FILLER_100_376
*1414 FILLER_100_388
*1415 FILLER_100_40
*1416 FILLER_100_400
*1417 FILLER_100_404
*1418 FILLER_100_406
*1419 FILLER_100_418
*1420 FILLER_100_430
*1421 FILLER_100_434
*1422 FILLER_100_436
*1423 FILLER_100_44
*1424 FILLER_100_448
*1425 FILLER_100_46
*1426 FILLER_100_460
*1427 FILLER_100_464
*1428 FILLER_100_466
*1429 FILLER_100_478
*1430 FILLER_100_490
*1431 FILLER_100_494
*1432 FILLER_100_496
*1433 FILLER_100_508
*1434 FILLER_100_520
*1435 FILLER_100_524
*1436 FILLER_100_526
*1437 FILLER_100_538
*1438 FILLER_100_550
*1439 FILLER_100_554
*1440 FILLER_100_556
*1441 FILLER_100_568
*1442 FILLER_100_58
*1443 FILLER_100_580
*1444 FILLER_100_584
*1445 FILLER_100_586
*1446 FILLER_100_598
*1447 FILLER_100_610
*1448 FILLER_100_614
*1449 FILLER_100_616
*1450 FILLER_100_628
*1451 FILLER_100_640
*1452 FILLER_100_644
*1453 FILLER_100_646
*1454 FILLER_100_658
*1455 FILLER_100_670
*1456 FILLER_100_674
*1457 FILLER_100_676
*1458 FILLER_100_688
*1459 FILLER_100_70
*1460 FILLER_100_700
*1461 FILLER_100_704
*1462 FILLER_100_706
*1463 FILLER_100_718
*1464 FILLER_100_730
*1465 FILLER_100_734
*1466 FILLER_100_736
*1467 FILLER_100_74
*1468 FILLER_100_748
*1469 FILLER_100_76
*1470 FILLER_100_760
*1471 FILLER_100_764
*1472 FILLER_100_766
*1473 FILLER_100_778
*1474 FILLER_100_790
*1475 FILLER_100_794
*1476 FILLER_100_796
*1477 FILLER_100_808
*1478 FILLER_100_820
*1479 FILLER_100_824
*1480 FILLER_100_826
*1481 FILLER_100_838
*1482 FILLER_100_850
*1483 FILLER_100_854
*1484 FILLER_100_856
*1485 FILLER_100_868
*1486 FILLER_100_88
*1487 FILLER_100_880
*1488 FILLER_100_884
*1489 FILLER_100_886
*1490 FILLER_100_898
*1491 FILLER_100_910
*1492 FILLER_100_914
*1493 FILLER_100_916
*1494 FILLER_100_928
*1495 FILLER_100_940
*1496 FILLER_100_944
*1497 FILLER_100_946
*1498 FILLER_100_958
*1499 FILLER_100_970
*1500 FILLER_100_974
*1501 FILLER_100_976
*1502 FILLER_100_988
*1503 FILLER_101_1003
*1504 FILLER_101_1015
*1505 FILLER_101_1019
*1506 FILLER_101_1021
*1507 FILLER_101_103
*1508 FILLER_101_1033
*1509 FILLER_101_1045
*1510 FILLER_101_1049
*1511 FILLER_101_1051
*1512 FILLER_101_1063
*1513 FILLER_101_1075
*1514 FILLER_101_1079
*1515 FILLER_101_1081
*1516 FILLER_101_1093
*1517 FILLER_101_1105
*1518 FILLER_101_1109
*1519 FILLER_101_1111
*1520 FILLER_101_1123
*1521 FILLER_101_1135
*1522 FILLER_101_1139
*1523 FILLER_101_1141
*1524 FILLER_101_115
*1525 FILLER_101_1153
*1526 FILLER_101_1165
*1527 FILLER_101_1169
*1528 FILLER_101_1171
*1529 FILLER_101_1183
*1530 FILLER_101_119
*1531 FILLER_101_1195
*1532 FILLER_101_1199
*1533 FILLER_101_1201
*1534 FILLER_101_121
*1535 FILLER_101_1213
*1536 FILLER_101_1225
*1537 FILLER_101_1229
*1538 FILLER_101_1231
*1539 FILLER_101_1243
*1540 FILLER_101_1255
*1541 FILLER_101_1259
*1542 FILLER_101_1261
*1543 FILLER_101_1273
*1544 FILLER_101_1285
*1545 FILLER_101_1289
*1546 FILLER_101_1291
*1547 FILLER_101_1303
*1548 FILLER_101_1315
*1549 FILLER_101_1319
*1550 FILLER_101_1321
*1551 FILLER_101_133
*1552 FILLER_101_1333
*1553 FILLER_101_1345
*1554 FILLER_101_1349
*1555 FILLER_101_1351
*1556 FILLER_101_1363
*1557 FILLER_101_1375
*1558 FILLER_101_1379
*1559 FILLER_101_1381
*1560 FILLER_101_1393
*1561 FILLER_101_1405
*1562 FILLER_101_1409
*1563 FILLER_101_1411
*1564 FILLER_101_1423
*1565 FILLER_101_1435
*1566 FILLER_101_1439
*1567 FILLER_101_1441
*1568 FILLER_101_145
*1569 FILLER_101_1453
*1570 FILLER_101_1465
*1571 FILLER_101_1469
*1572 FILLER_101_1471
*1573 FILLER_101_1483
*1574 FILLER_101_149
*1575 FILLER_101_1495
*1576 FILLER_101_1499
*1577 FILLER_101_15
*1578 FILLER_101_1501
*1579 FILLER_101_151
*1580 FILLER_101_1513
*1581 FILLER_101_1525
*1582 FILLER_101_1529
*1583 FILLER_101_1531
*1584 FILLER_101_1543
*1585 FILLER_101_1555
*1586 FILLER_101_1559
*1587 FILLER_101_1561
*1588 FILLER_101_1573
*1589 FILLER_101_1585
*1590 FILLER_101_1589
*1591 FILLER_101_1591
*1592 FILLER_101_1603
*1593 FILLER_101_1615
*1594 FILLER_101_1619
*1595 FILLER_101_1621
*1596 FILLER_101_163
*1597 FILLER_101_1633
*1598 FILLER_101_1645
*1599 FILLER_101_1649
*1600 FILLER_101_1651
*1601 FILLER_101_1663
*1602 FILLER_101_1675
*1603 FILLER_101_1679
*1604 FILLER_101_1681
*1605 FILLER_101_1693
*1606 FILLER_101_1705
*1607 FILLER_101_1709
*1608 FILLER_101_1711
*1609 FILLER_101_1723
*1610 FILLER_101_1735
*1611 FILLER_101_1739
*1612 FILLER_101_1741
*1613 FILLER_101_175
*1614 FILLER_101_1753
*1615 FILLER_101_1765
*1616 FILLER_101_1769
*1617 FILLER_101_1771
*1618 FILLER_101_1783
*1619 FILLER_101_179
*1620 FILLER_101_1795
*1621 FILLER_101_1799
*1622 FILLER_101_1801
*1623 FILLER_101_181
*1624 FILLER_101_1813
*1625 FILLER_101_1825
*1626 FILLER_101_1829
*1627 FILLER_101_1831
*1628 FILLER_101_1843
*1629 FILLER_101_1855
*1630 FILLER_101_1859
*1631 FILLER_101_1861
*1632 FILLER_101_1873
*1633 FILLER_101_1885
*1634 FILLER_101_1889
*1635 FILLER_101_1891
*1636 FILLER_101_1903
*1637 FILLER_101_1915
*1638 FILLER_101_1919
*1639 FILLER_101_1921
*1640 FILLER_101_193
*1641 FILLER_101_205
*1642 FILLER_101_209
*1643 FILLER_101_211
*1644 FILLER_101_223
*1645 FILLER_101_235
*1646 FILLER_101_239
*1647 FILLER_101_241
*1648 FILLER_101_253
*1649 FILLER_101_265
*1650 FILLER_101_269
*1651 FILLER_101_27
*1652 FILLER_101_271
*1653 FILLER_101_283
*1654 FILLER_101_295
*1655 FILLER_101_299
*1656 FILLER_101_3
*1657 FILLER_101_301
*1658 FILLER_101_31
*1659 FILLER_101_313
*1660 FILLER_101_325
*1661 FILLER_101_329
*1662 FILLER_101_331
*1663 FILLER_101_343
*1664 FILLER_101_355
*1665 FILLER_101_359
*1666 FILLER_101_361
*1667 FILLER_101_373
*1668 FILLER_101_385