*SPEF "ieee 1481-1999"
*DESIGN "macro_7"
*DATE "11:11:11 Fri 11 11, 1111"
*VENDOR "OpenRCX"
*PROGRAM "Parallel Extraction"
*VERSION "1.0"
*DESIGN_FLOW "NAME_SCOPE LOCAL" "PIN_CAP NONE"
*DIVIDER /
*DELIMITER :
*BUS_DELIMITER []
*T_UNIT 1 NS
*C_UNIT 1 PF
*R_UNIT 1 OHM
*L_UNIT 1 HENRY

*NAME_MAP
*1 active
*2 analog_io[0]
*3 analog_io[10]
*4 analog_io[11]
*5 analog_io[12]
*6 analog_io[13]
*7 analog_io[14]
*8 analog_io[15]
*9 analog_io[16]
*10 analog_io[17]
*11 analog_io[18]
*12 analog_io[19]
*13 analog_io[1]
*14 analog_io[20]
*15 analog_io[21]
*16 analog_io[22]
*17 analog_io[23]
*18 analog_io[24]
*19 analog_io[25]
*20 analog_io[26]
*21 analog_io[27]
*22 analog_io[28]
*23 analog_io[2]
*24 analog_io[3]
*25 analog_io[4]
*26 analog_io[5]
*27 analog_io[6]
*28 analog_io[7]
*29 analog_io[8]
*30 analog_io[9]
*31 io_in[0]
*32 io_in[10]
*33 io_in[11]
*34 io_in[12]
*35 io_in[13]
*36 io_in[14]
*37 io_in[15]
*38 io_in[16]
*39 io_in[17]
*40 io_in[18]
*41 io_in[19]
*42 io_in[1]
*43 io_in[20]
*44 io_in[21]
*45 io_in[22]
*46 io_in[23]
*47 io_in[24]
*48 io_in[25]
*49 io_in[26]
*50 io_in[27]
*51 io_in[28]
*52 io_in[29]
*53 io_in[2]
*54 io_in[30]
*55 io_in[31]
*56 io_in[32]
*57 io_in[33]
*58 io_in[34]
*59 io_in[35]
*60 io_in[36]
*61 io_in[37]
*62 io_in[3]
*63 io_in[4]
*64 io_in[5]
*65 io_in[6]
*66 io_in[7]
*67 io_in[8]
*68 io_in[9]
*69 net234
*70 net244
*71 net245
*72 net246
*73 net247
*74 net248
*75 net249
*76 net250
*77 net251
*78 net252
*79 net253
*80 net235
*81 net254
*82 net255
*83 net256
*84 net257
*85 net258
*86 net259
*87 net260
*88 net261
*89 net37
*90 net38
*91 net236
*92 net39
*93 net40
*94 net41
*95 net42
*96 net43
*97 net44
*98 net45
*99 net46
*100 net237
*101 net238
*102 net239
*103 net240
*104 net241
*105 net242
*106 net243
*107 io_out[0]
*108 io_out[10]
*109 io_out[11]
*110 io_out[12]
*111 io_out[13]
*112 io_out[14]
*113 io_out[15]
*114 io_out[16]
*115 io_out[17]
*116 net50
*117 net51
*118 net47
*119 net52
*120 net53
*121 net54
*122 net55
*123 net56
*124 net57
*125 net58
*126 net59
*127 net60
*128 net61
*129 net48
*130 net62
*131 net63
*132 net64
*133 net65
*134 net66
*135 net67
*136 net68
*137 net69
*138 net49
*139 io_out[4]
*140 io_out[5]
*141 io_out[6]
*142 io_out[7]
*143 io_out[8]
*144 io_out[9]
*145 la_data_in[0]
*146 la_data_in[100]
*147 la_data_in[101]
*148 la_data_in[102]
*149 la_data_in[103]
*150 la_data_in[104]
*151 la_data_in[105]
*152 la_data_in[106]
*153 la_data_in[107]
*154 la_data_in[108]
*155 la_data_in[109]
*156 la_data_in[10]
*157 la_data_in[110]
*158 la_data_in[111]
*159 la_data_in[112]
*160 la_data_in[113]
*161 la_data_in[114]
*162 la_data_in[115]
*163 la_data_in[116]
*164 la_data_in[117]
*165 la_data_in[118]
*166 la_data_in[119]
*167 la_data_in[11]
*168 la_data_in[120]
*169 la_data_in[121]
*170 la_data_in[122]
*171 la_data_in[123]
*172 la_data_in[124]
*173 la_data_in[125]
*174 la_data_in[126]
*175 la_data_in[127]
*176 la_data_in[12]
*177 la_data_in[13]
*178 la_data_in[14]
*179 la_data_in[15]
*180 la_data_in[16]
*181 la_data_in[17]
*182 la_data_in[18]
*183 la_data_in[19]
*184 la_data_in[1]
*185 la_data_in[20]
*186 la_data_in[21]
*187 la_data_in[22]
*188 la_data_in[23]
*189 la_data_in[24]
*190 la_data_in[25]
*191 la_data_in[26]
*192 la_data_in[27]
*193 la_data_in[28]
*194 la_data_in[29]
*195 la_data_in[2]
*196 la_data_in[30]
*197 la_data_in[31]
*198 la_data_in[32]
*199 la_data_in[33]
*200 la_data_in[34]
*201 la_data_in[35]
*202 la_data_in[36]
*203 la_data_in[37]
*204 la_data_in[38]
*205 la_data_in[39]
*206 la_data_in[3]
*207 la_data_in[40]
*208 la_data_in[41]
*209 la_data_in[42]
*210 la_data_in[43]
*211 la_data_in[44]
*212 la_data_in[45]
*213 la_data_in[46]
*214 la_data_in[47]
*215 la_data_in[48]
*216 la_data_in[49]
*217 la_data_in[4]
*218 la_data_in[50]
*219 la_data_in[51]
*220 la_data_in[52]
*221 la_data_in[53]
*222 la_data_in[54]
*223 la_data_in[55]
*224 la_data_in[56]
*225 la_data_in[57]
*226 la_data_in[58]
*227 la_data_in[59]
*228 la_data_in[5]
*229 la_data_in[60]
*230 la_data_in[61]
*231 la_data_in[62]
*232 la_data_in[63]
*233 la_data_in[64]
*234 la_data_in[65]
*235 la_data_in[66]
*236 la_data_in[67]
*237 la_data_in[68]
*238 la_data_in[69]
*239 la_data_in[6]
*240 la_data_in[70]
*241 la_data_in[71]
*242 la_data_in[72]
*243 la_data_in[73]
*244 la_data_in[74]
*245 la_data_in[75]
*246 la_data_in[76]
*247 la_data_in[77]
*248 la_data_in[78]
*249 la_data_in[79]
*250 la_data_in[7]
*251 la_data_in[80]
*252 la_data_in[81]
*253 la_data_in[82]
*254 la_data_in[83]
*255 la_data_in[84]
*256 la_data_in[85]
*257 la_data_in[86]
*258 la_data_in[87]
*259 la_data_in[88]
*260 la_data_in[89]
*261 la_data_in[8]
*262 la_data_in[90]
*263 la_data_in[91]
*264 la_data_in[92]
*265 la_data_in[93]
*266 la_data_in[94]
*267 la_data_in[95]
*268 la_data_in[96]
*269 la_data_in[97]
*270 la_data_in[98]
*271 la_data_in[99]
*272 la_data_in[9]
*273 net70
*274 net138
*275 net139
*276 net140
*277 net141
*278 net142
*279 net143
*280 net144
*281 net145
*282 net146
*283 net147
*284 net80
*285 net148
*286 net149
*287 net150
*288 net151
*289 net152
*290 net153
*291 net154
*292 net155
*293 net156
*294 net157
*295 net81
*296 net158
*297 net159
*298 net160
*299 net161
*300 net162
*301 net163
*302 net164
*303 net165
*304 net82
*305 net83
*306 net84
*307 net85
*308 net86
*309 net87
*310 net88
*311 net89
*312 net71
*313 net90
*314 net91
*315 net92
*316 net93
*317 net94
*318 net95
*319 net96
*320 net97
*321 net98
*322 net99
*323 net72
*324 net100
*325 net101
*326 la_data_out[32]
*327 la_data_out[33]
*328 la_data_out[34]
*329 la_data_out[35]
*330 la_data_out[36]
*331 la_data_out[37]
*332 la_data_out[38]
*333 la_data_out[39]
*334 net73
*335 la_data_out[40]
*336 la_data_out[41]
*337 la_data_out[42]
*338 la_data_out[43]
*339 la_data_out[44]
*340 la_data_out[45]
*341 la_data_out[46]
*342 la_data_out[47]
*343 la_data_out[48]
*344 la_data_out[49]
*345 net74
*346 la_data_out[50]
*347 la_data_out[51]
*348 la_data_out[52]
*349 la_data_out[53]
*350 la_data_out[54]
*351 la_data_out[55]
*352 la_data_out[56]
*353 la_data_out[57]
*354 la_data_out[58]
*355 la_data_out[59]
*356 net75
*357 la_data_out[60]
*358 la_data_out[61]
*359 la_data_out[62]
*360 la_data_out[63]
*361 net102
*362 net103
*363 net104
*364 net105
*365 net106
*366 net107
*367 net76
*368 net108
*369 net109
*370 net110
*371 net111
*372 net112
*373 net113
*374 net114
*375 net115
*376 net116
*377 net117
*378 net77
*379 net118
*380 net119
*381 net120
*382 net121
*383 net122
*384 net123
*385 net124
*386 net125
*387 net126
*388 net127
*389 net78
*390 net128
*391 net129
*392 net130
*393 net131
*394 net132
*395 net133
*396 net134
*397 net135
*398 net136
*399 net137
*400 net79
*401 la_oenb[0]
*402 la_oenb[100]
*403 la_oenb[101]
*404 la_oenb[102]
*405 la_oenb[103]
*406 la_oenb[104]
*407 la_oenb[105]
*408 la_oenb[106]
*409 la_oenb[107]
*410 la_oenb[108]
*411 la_oenb[109]
*412 la_oenb[10]
*413 la_oenb[110]
*414 la_oenb[111]
*415 la_oenb[112]
*416 la_oenb[113]
*417 la_oenb[114]
*418 la_oenb[115]
*419 la_oenb[116]
*420 la_oenb[117]
*421 la_oenb[118]
*422 la_oenb[119]
*423 la_oenb[11]
*424 la_oenb[120]
*425 la_oenb[121]
*426 la_oenb[122]
*427 la_oenb[123]
*428 la_oenb[124]
*429 la_oenb[125]
*430 la_oenb[126]
*431 la_oenb[127]
*432 la_oenb[12]
*433 la_oenb[13]
*434 la_oenb[14]
*435 la_oenb[15]
*436 la_oenb[16]
*437 la_oenb[17]
*438 la_oenb[18]
*439 la_oenb[19]
*440 la_oenb[1]
*441 la_oenb[20]
*442 la_oenb[21]
*443 la_oenb[22]
*444 la_oenb[23]
*445 la_oenb[24]
*446 la_oenb[25]
*447 la_oenb[26]
*448 la_oenb[27]
*449 la_oenb[28]
*450 la_oenb[29]
*451 la_oenb[2]
*452 la_oenb[30]
*453 la_oenb[31]
*454 la_oenb[32]
*455 la_oenb[33]
*456 la_oenb[34]
*457 la_oenb[35]
*458 la_oenb[36]
*459 la_oenb[37]
*460 la_oenb[38]
*461 la_oenb[39]
*462 la_oenb[3]
*463 la_oenb[40]
*464 la_oenb[41]
*465 la_oenb[42]
*466 la_oenb[43]
*467 la_oenb[44]
*468 la_oenb[45]
*469 la_oenb[46]
*470 la_oenb[47]
*471 la_oenb[48]
*472 la_oenb[49]
*473 la_oenb[4]
*474 la_oenb[50]
*475 la_oenb[51]
*476 la_oenb[52]
*477 la_oenb[53]
*478 la_oenb[54]
*479 la_oenb[55]
*480 la_oenb[56]
*481 la_oenb[57]
*482 la_oenb[58]
*483 la_oenb[59]
*484 la_oenb[5]
*485 la_oenb[60]
*486 la_oenb[61]
*487 la_oenb[62]
*488 la_oenb[63]
*489 la_oenb[64]
*490 la_oenb[65]
*491 la_oenb[66]
*492 la_oenb[67]
*493 la_oenb[68]
*494 la_oenb[69]
*495 la_oenb[6]
*496 la_oenb[70]
*497 la_oenb[71]
*498 la_oenb[72]
*499 la_oenb[73]
*500 la_oenb[74]
*501 la_oenb[75]
*502 la_oenb[76]
*503 la_oenb[77]
*504 la_oenb[78]
*505 la_oenb[79]
*506 la_oenb[7]
*507 la_oenb[80]
*508 la_oenb[81]
*509 la_oenb[82]
*510 la_oenb[83]
*511 la_oenb[84]
*512 la_oenb[85]
*513 la_oenb[86]
*514 la_oenb[87]
*515 la_oenb[88]
*516 la_oenb[89]
*517 la_oenb[8]
*518 la_oenb[90]
*519 la_oenb[91]
*520 la_oenb[92]
*521 la_oenb[93]
*522 la_oenb[94]
*523 la_oenb[95]
*524 la_oenb[96]
*525 la_oenb[97]
*526 la_oenb[98]
*527 la_oenb[99]
*528 la_oenb[9]
*529 user_clock2
*530 net166
*531 net167
*532 net168
*535 wb_clk_i
*536 wb_rst_i
*537 net169
*538 wbs_adr_i[0]
*539 wbs_adr_i[10]
*540 wbs_adr_i[11]
*541 wbs_adr_i[12]
*542 wbs_adr_i[13]
*543 wbs_adr_i[14]
*544 wbs_adr_i[15]
*545 wbs_adr_i[16]
*546 wbs_adr_i[17]
*547 wbs_adr_i[18]
*548 wbs_adr_i[19]
*549 wbs_adr_i[1]
*550 wbs_adr_i[20]
*551 wbs_adr_i[21]
*552 wbs_adr_i[22]
*553 wbs_adr_i[23]
*554 wbs_adr_i[24]
*555 wbs_adr_i[25]
*556 wbs_adr_i[26]
*557 wbs_adr_i[27]
*558 wbs_adr_i[28]
*559 wbs_adr_i[29]
*560 wbs_adr_i[2]
*561 wbs_adr_i[30]
*562 wbs_adr_i[31]
*563 wbs_adr_i[3]
*564 wbs_adr_i[4]
*565 wbs_adr_i[5]
*566 wbs_adr_i[6]
*567 wbs_adr_i[7]
*568 wbs_adr_i[8]
*569 wbs_adr_i[9]
*570 wbs_cyc_i
*571 wbs_dat_i[0]
*572 wbs_dat_i[10]
*573 wbs_dat_i[11]
*574 wbs_dat_i[12]
*575 wbs_dat_i[13]
*576 wbs_dat_i[14]
*577 wbs_dat_i[15]
*578 wbs_dat_i[16]
*579 wbs_dat_i[17]
*580 wbs_dat_i[18]
*581 wbs_dat_i[19]
*582 wbs_dat_i[1]
*583 wbs_dat_i[20]
*584 wbs_dat_i[21]
*585 wbs_dat_i[22]
*586 wbs_dat_i[23]
*587 wbs_dat_i[24]
*588 wbs_dat_i[25]
*589 wbs_dat_i[26]
*590 wbs_dat_i[27]
*591 wbs_dat_i[28]
*592 wbs_dat_i[29]
*593 wbs_dat_i[2]
*594 wbs_dat_i[30]
*595 wbs_dat_i[31]
*596 wbs_dat_i[3]
*597 wbs_dat_i[4]
*598 wbs_dat_i[5]
*599 wbs_dat_i[6]
*600 wbs_dat_i[7]
*601 wbs_dat_i[8]
*602 wbs_dat_i[9]
*603 net170
*604 net180
*605 net181
*606 net182
*607 net183
*608 net184
*609 net185
*610 net186
*611 net187
*612 net188
*613 net189
*614 net171
*615 net190
*616 net191
*617 net192
*618 net193
*619 net194
*620 net195
*621 net196
*622 net197
*623 net198
*624 net199
*625 net172
*626 net200
*627 net201
*628 net173
*629 net174
*630 net175
*631 net176
*632 net177
*633 net178
*634 net179
*635 wbs_sel_i[0]
*636 wbs_sel_i[1]
*637 wbs_sel_i[2]
*638 wbs_sel_i[3]
*639 wbs_stb_i
*640 wbs_we_i
*641 _000_
*642 _001_
*643 _002_
*644 _003_
*645 _004_
*646 _005_
*647 _006_
*648 _007_
*649 _008_
*650 _009_
*651 _010_
*652 _011_
*653 _012_
*654 _013_
*655 _014_
*656 _015_
*657 _016_
*658 _017_
*659 _018_
*660 _019_
*661 _020_
*662 _021_
*663 _022_
*664 _023_
*665 _024_
*666 _025_
*667 _026_
*668 _027_
*669 _028_
*670 _029_
*671 _030_
*672 _031_
*673 _032_
*674 _033_
*675 _034_
*676 _035_
*677 _036_
*678 _037_
*679 _038_
*680 _039_
*681 _040_
*682 _041_
*683 _042_
*684 _043_
*685 _044_
*686 _045_
*687 _046_
*688 _047_
*689 _048_
*690 _049_
*691 _050_
*692 _051_
*693 _052_
*694 _053_
*695 _054_
*696 _055_
*697 _056_
*698 _057_
*699 _058_
*700 _059_
*701 _060_
*702 _061_
*703 _062_
*704 _063_
*705 _064_
*706 _065_
*707 _066_
*708 _067_
*709 _068_
*710 _069_
*711 _070_
*712 _071_
*713 _072_
*714 _073_
*715 _074_
*716 _075_
*717 _076_
*718 _077_
*719 _078_
*720 _079_
*721 _080_
*722 _081_
*723 _082_
*724 _083_
*725 _084_
*726 _085_
*727 _086_
*728 _087_
*729 _088_
*730 _089_
*731 _090_
*732 _091_
*733 _092_
*734 _093_
*735 _094_
*736 _095_
*737 _096_
*738 _097_
*739 _098_
*740 _099_
*741 _100_
*742 _101_
*743 _102_
*744 _103_
*745 _104_
*746 _105_
*747 _106_
*748 _107_
*749 _108_
*750 _109_
*751 _110_
*752 _111_
*753 _112_
*754 _113_
*755 _114_
*756 _115_
*757 _116_
*758 _117_
*759 _118_
*760 _119_
*761 _120_
*762 _121_
*763 _122_
*764 _123_
*765 _124_
*766 _125_
*767 _126_
*768 _127_
*769 _128_
*770 _129_
*771 _130_
*772 _131_
*773 _132_
*774 _133_
*775 _134_
*776 _135_
*777 _136_
*778 _137_
*779 net1
*780 net10
*781 net11
*782 net12
*783 net13
*784 net14
*785 net15
*786 net16
*787 net17
*788 net18
*789 net19
*790 net2
*791 net20
*792 net202
*793 net203
*794 net204
*795 net205
*796 net206
*797 net207
*798 net208
*799 net209
*800 net21
*801 net210
*802 net211
*803 net212
*804 net213
*805 net214
*806 net215
*807 net216
*808 net217
*809 net218
*810 net219
*811 net22
*812 net220
*813 net221
*814 net222
*815 net223
*816 net224
*817 net225
*818 net226
*819 net227
*820 net228
*821 net229
*822 net23
*823 net230
*824 net231
*825 net232
*826 net233
*827 net24
*828 net25
*829 net26
*830 net27
*831 net28
*832 net29
*833 net3
*834 net30
*835 net31
*836 net32
*837 net33
*838 net34
*839 net35
*840 net36
*841 net4
*842 net5
*843 net6
*844 net7
*845 net8
*846 net9
*847 ANTENNA__170__A
*848 ANTENNA__171__A
*849 ANTENNA__172__A
*850 ANTENNA__197__A
*851 ANTENNA__203__A
*852 ANTENNA__211__A_N
*853 ANTENNA__211__B
*854 ANTENNA__230__A
*855 ANTENNA__234__A_N
*856 ANTENNA__234__B
*857 ANTENNA__236__A
*858 ANTENNA__251__A1
*859 ANTENNA__253__A
*860 ANTENNA__258__B1
*861 ANTENNA__258__B2
*862 ANTENNA__259__A
*863 ANTENNA__260__B2
*864 ANTENNA__263__A
*865 ANTENNA__264__B2
*866 ANTENNA__267__A
*867 ANTENNA__270__A
*868 ANTENNA__275__A
*869 ANTENNA__276__A2
*870 ANTENNA__281__A
*871 ANTENNA__282__A2
*872 ANTENNA__294__B1
*873 ANTENNA__295__A1
*874 ANTENNA__317__A1
*875 ANTENNA__318__A1
*876 ANTENNA__321__C1
*877 ANTENNA_input10_A
*878 ANTENNA_input11_A
*879 ANTENNA_input12_A
*880 ANTENNA_input13_A
*881 ANTENNA_input14_A
*882 ANTENNA_input15_A
*883 ANTENNA_input16_A
*884 ANTENNA_input17_A
*885 ANTENNA_input18_A
*886 ANTENNA_input19_A
*887 ANTENNA_input1_A
*888 ANTENNA_input20_A
*889 ANTENNA_input21_A
*890 ANTENNA_input2_A
*891 ANTENNA_input3_A
*892 ANTENNA_input4_A
*893 ANTENNA_input5_A
*894 ANTENNA_input6_A
*895 ANTENNA_input7_A
*896 ANTENNA_input8_A
*897 ANTENNA_input9_A
*898 ANTENNA_output22_A
*899 ANTENNA_output31_A
*900 ANTENNA_output32_A
*901 FILLER_0_101
*902 FILLER_0_109
*903 FILLER_0_116
*904 FILLER_0_124
*905 FILLER_0_131
*906 FILLER_0_139
*907 FILLER_0_14
*908 FILLER_0_146
*909 FILLER_0_154
*910 FILLER_0_161
*911 FILLER_0_169
*912 FILLER_0_176
*913 FILLER_0_184
*914 FILLER_0_19
*915 FILLER_0_191
*916 FILLER_0_199
*917 FILLER_0_206
*918 FILLER_0_211
*919 FILLER_0_221
*920 FILLER_0_228
*921 FILLER_0_236
*922 FILLER_0_243
*923 FILLER_0_251
*924 FILLER_0_26
*925 FILLER_0_266
*926 FILLER_0_271
*927 FILLER_0_279
*928 FILLER_0_286
*929 FILLER_0_294
*930 FILLER_0_304
*931 FILLER_0_311
*932 FILLER_0_319
*933 FILLER_0_326
*934 FILLER_0_334
*935 FILLER_0_34
*936 FILLER_0_341
*937 FILLER_0_349
*938 FILLER_0_356
*939 FILLER_0_364
*940 FILLER_0_371
*941 FILLER_0_379
*942 FILLER_0_386
*943 FILLER_0_394
*944 FILLER_0_401
*945 FILLER_0_409
*946 FILLER_0_41
*947 FILLER_0_416
*948 FILLER_0_424
*949 FILLER_0_431
*950 FILLER_0_439
*951 FILLER_0_446
*952 FILLER_0_454
*953 FILLER_0_461
*954 FILLER_0_469
*955 FILLER_0_476
*956 FILLER_0_484
*957 FILLER_0_49
*958 FILLER_0_491
*959 FILLER_0_496
*960 FILLER_0_506
*961 FILLER_0_511
*962 FILLER_0_515
*963 FILLER_0_56
*964 FILLER_0_6
*965 FILLER_0_64
*966 FILLER_0_71
*967 FILLER_0_79
*968 FILLER_0_86
*969 FILLER_0_94
*970 FILLER_10_100
*971 FILLER_10_104
*972 FILLER_10_106
*973 FILLER_10_118
*974 FILLER_10_130
*975 FILLER_10_134
*976 FILLER_10_136
*977 FILLER_10_148
*978 FILLER_10_16
*979 FILLER_10_160
*980 FILLER_10_164
*981 FILLER_10_166
*982 FILLER_10_178
*983 FILLER_10_190
*984 FILLER_10_194
*985 FILLER_10_196
*986 FILLER_10_208
*987 FILLER_10_220
*988 FILLER_10_224
*989 FILLER_10_226
*990 FILLER_10_232
*991 FILLER_10_240
*992 FILLER_10_246
*993 FILLER_10_254
*994 FILLER_10_256
*995 FILLER_10_260
*996 FILLER_10_267
*997 FILLER_10_274
*998 FILLER_10_28
*999 FILLER_10_281
*1000 FILLER_10_289
*1001 FILLER_10_296
*1002 FILLER_10_3
*1003 FILLER_10_303
*1004 FILLER_10_316
*1005 FILLER_10_328
*1006 FILLER_10_340
*1007 FILLER_10_344
*1008 FILLER_10_346
*1009 FILLER_10_358
*1010 FILLER_10_370
*1011 FILLER_10_374
*1012 FILLER_10_376
*1013 FILLER_10_388
*1014 FILLER_10_40
*1015 FILLER_10_400
*1016 FILLER_10_404
*1017 FILLER_10_406
*1018 FILLER_10_418
*1019 FILLER_10_430
*1020 FILLER_10_434
*1021 FILLER_10_436
*1022 FILLER_10_44
*1023 FILLER_10_448
*1024 FILLER_10_46
*1025 FILLER_10_460
*1026 FILLER_10_464
*1027 FILLER_10_466
*1028 FILLER_10_478
*1029 FILLER_10_490
*1030 FILLER_10_494
*1031 FILLER_10_496
*1032 FILLER_10_508
*1033 FILLER_10_58
*1034 FILLER_10_70
*1035 FILLER_10_74
*1036 FILLER_10_76
*1037 FILLER_10_88
*1038 FILLER_11_103
*1039 FILLER_11_115
*1040 FILLER_11_119
*1041 FILLER_11_121
*1042 FILLER_11_133
*1043 FILLER_11_145
*1044 FILLER_11_149
*1045 FILLER_11_15
*1046 FILLER_11_151
*1047 FILLER_11_163
*1048 FILLER_11_175
*1049 FILLER_11_179
*1050 FILLER_11_181
*1051 FILLER_11_193
*1052 FILLER_11_205
*1053 FILLER_11_209
*1054 FILLER_11_211
*1055 FILLER_11_223
*1056 FILLER_11_235
*1057 FILLER_11_239
*1058 FILLER_11_241
*1059 FILLER_11_253
*1060 FILLER_11_265
*1061 FILLER_11_269
*1062 FILLER_11_27
*1063 FILLER_11_271
*1064 FILLER_11_283
*1065 FILLER_11_295
*1066 FILLER_11_299
*1067 FILLER_11_3
*1068 FILLER_11_301
*1069 FILLER_11_31
*1070 FILLER_11_313
*1071 FILLER_11_325
*1072 FILLER_11_329
*1073 FILLER_11_331
*1074 FILLER_11_343
*1075 FILLER_11_355
*1076 FILLER_11_359
*1077 FILLER_11_361
*1078 FILLER_11_373
*1079 FILLER_11_385
*1080 FILLER_11_389
*1081 FILLER_11_391
*1082 FILLER_11_403
*1083 FILLER_11_415
*1084 FILLER_11_419
*1085 FILLER_11_421
*1086 FILLER_11_43
*1087 FILLER_11_433
*1088 FILLER_11_445
*1089 FILLER_11_449
*1090 FILLER_11_451
*1091 FILLER_11_463
*1092 FILLER_11_475
*1093 FILLER_11_479
*1094 FILLER_11_481
*1095 FILLER_11_493
*1096 FILLER_11_505
*1097 FILLER_11_509
*1098 FILLER_11_511
*1099 FILLER_11_515
*1100 FILLER_11_55
*1101 FILLER_11_59
*1102 FILLER_11_61
*1103 FILLER_11_73
*1104 FILLER_11_85
*1105 FILLER_11_89
*1106 FILLER_11_91
*1107 FILLER_12_100
*1108 FILLER_12_104
*1109 FILLER_12_106
*1110 FILLER_12_118
*1111 FILLER_12_130
*1112 FILLER_12_134
*1113 FILLER_12_136
*1114 FILLER_12_148
*1115 FILLER_12_16
*1116 FILLER_12_160
*1117 FILLER_12_164
*1118 FILLER_12_166
*1119 FILLER_12_178
*1120 FILLER_12_190
*1121 FILLER_12_194
*1122 FILLER_12_196
*1123 FILLER_12_208
*1124 FILLER_12_220
*1125 FILLER_12_224
*1126 FILLER_12_226
*1127 FILLER_12_238
*1128 FILLER_12_250
*1129 FILLER_12_254
*1130 FILLER_12_256
*1131 FILLER_12_268
*1132 FILLER_12_28
*1133 FILLER_12_280
*1134 FILLER_12_284
*1135 FILLER_12_286
*1136 FILLER_12_298
*1137 FILLER_12_3
*1138 FILLER_12_310
*1139 FILLER_12_314
*1140 FILLER_12_316
*1141 FILLER_12_328
*1142 FILLER_12_340
*1143 FILLER_12_344
*1144 FILLER_12_346
*1145 FILLER_12_358
*1146 FILLER_12_370
*1147 FILLER_12_374
*1148 FILLER_12_376
*1149 FILLER_12_388
*1150 FILLER_12_40
*1151 FILLER_12_400
*1152 FILLER_12_404
*1153 FILLER_12_406
*1154 FILLER_12_418
*1155 FILLER_12_430
*1156 FILLER_12_434
*1157 FILLER_12_436
*1158 FILLER_12_44
*1159 FILLER_12_448
*1160 FILLER_12_46
*1161 FILLER_12_460
*1162 FILLER_12_464
*1163 FILLER_12_466
*1164 FILLER_12_478
*1165 FILLER_12_490
*1166 FILLER_12_494
*1167 FILLER_12_496
*1168 FILLER_12_508
*1169 FILLER_12_58
*1170 FILLER_12_70
*1171 FILLER_12_74
*1172 FILLER_12_76
*1173 FILLER_12_88
*1174 FILLER_13_103
*1175 FILLER_13_115
*1176 FILLER_13_119
*1177 FILLER_13_121
*1178 FILLER_13_133
*1179 FILLER_13_145
*1180 FILLER_13_149
*1181 FILLER_13_15
*1182 FILLER_13_151
*1183 FILLER_13_163
*1184 FILLER_13_175
*1185 FILLER_13_179
*1186 FILLER_13_181
*1187 FILLER_13_193
*1188 FILLER_13_205
*1189 FILLER_13_209
*1190 FILLER_13_211
*1191 FILLER_13_223
*1192 FILLER_13_235
*1193 FILLER_13_239
*1194 FILLER_13_241
*1195 FILLER_13_253
*1196 FILLER_13_265
*1197 FILLER_13_269
*1198 FILLER_13_27
*1199 FILLER_13_271
*1200 FILLER_13_283
*1201 FILLER_13_295
*1202 FILLER_13_299
*1203 FILLER_13_3
*1204 FILLER_13_301
*1205 FILLER_13_31
*1206 FILLER_13_313
*1207 FILLER_13_325
*1208 FILLER_13_329
*1209 FILLER_13_331
*1210 FILLER_13_343
*1211 FILLER_13_355
*1212 FILLER_13_359
*1213 FILLER_13_361
*1214 FILLER_13_373
*1215 FILLER_13_385
*1216 FILLER_13_389
*1217 FILLER_13_391
*1218 FILLER_13_403
*1219 FILLER_13_415
*1220 FILLER_13_419
*1221 FILLER_13_421
*1222 FILLER_13_43
*1223 FILLER_13_433
*1224 FILLER_13_445
*1225 FILLER_13_449
*1226 FILLER_13_451
*1227 FILLER_13_463
*1228 FILLER_13_475
*1229 FILLER_13_479
*1230 FILLER_13_481
*1231 FILLER_13_493
*1232 FILLER_13_505
*1233 FILLER_13_509
*1234 FILLER_13_511
*1235 FILLER_13_515
*1236 FILLER_13_55
*1237 FILLER_13_59
*1238 FILLER_13_61
*1239 FILLER_13_73
*1240 FILLER_13_85
*1241 FILLER_13_89
*1242 FILLER_13_91
*1243 FILLER_14_100
*1244 FILLER_14_104
*1245 FILLER_14_106
*1246 FILLER_14_118
*1247 FILLER_14_130
*1248 FILLER_14_134
*1249 FILLER_14_136
*1250 FILLER_14_148
*1251 FILLER_14_16
*1252 FILLER_14_160
*1253 FILLER_14_164
*1254 FILLER_14_166
*1255 FILLER_14_178
*1256 FILLER_14_190
*1257 FILLER_14_194
*1258 FILLER_14_196
*1259 FILLER_14_208
*1260 FILLER_14_220
*1261 FILLER_14_224
*1262 FILLER_14_226
*1263 FILLER_14_238
*1264 FILLER_14_250
*1265 FILLER_14_254
*1266 FILLER_14_256
*1267 FILLER_14_268
*1268 FILLER_14_28
*1269 FILLER_14_280
*1270 FILLER_14_284
*1271 FILLER_14_286
*1272 FILLER_14_298
*1273 FILLER_14_3
*1274 FILLER_14_310
*1275 FILLER_14_314
*1276 FILLER_14_316
*1277 FILLER_14_328
*1278 FILLER_14_340
*1279 FILLER_14_344
*1280 FILLER_14_346
*1281 FILLER_14_358
*1282 FILLER_14_370
*1283 FILLER_14_374
*1284 FILLER_14_376
*1285 FILLER_14_388
*1286 FILLER_14_40
*1287 FILLER_14_400
*1288 FILLER_14_404
*1289 FILLER_14_406
*1290 FILLER_14_418
*1291 FILLER_14_430
*1292 FILLER_14_434
*1293 FILLER_14_436
*1294 FILLER_14_44
*1295 FILLER_14_448
*1296 FILLER_14_46
*1297 FILLER_14_460
*1298 FILLER_14_464
*1299 FILLER_14_466
*1300 FILLER_14_478
*1301 FILLER_14_490
*1302 FILLER_14_494
*1303 FILLER_14_496
*1304 FILLER_14_508
*1305 FILLER_14_58
*1306 FILLER_14_70
*1307 FILLER_14_74
*1308 FILLER_14_76
*1309 FILLER_14_88
*1310 FILLER_15_103
*1311 FILLER_15_115
*1312 FILLER_15_119
*1313 FILLER_15_121
*1314 FILLER_15_133
*1315 FILLER_15_145
*1316 FILLER_15_149
*1317 FILLER_15_15
*1318 FILLER_15_151
*1319 FILLER_15_163
*1320 FILLER_15_175
*1321 FILLER_15_179
*1322 FILLER_15_181
*1323 FILLER_15_193
*1324 FILLER_15_205
*1325 FILLER_15_209
*1326 FILLER_15_211
*1327 FILLER_15_223
*1328 FILLER_15_235
*1329 FILLER_15_239
*1330 FILLER_15_241
*1331 FILLER_15_253
*1332 FILLER_15_265
*1333 FILLER_15_269
*1334 FILLER_15_27
*1335 FILLER_15_271
*1336 FILLER_15_283
*1337 FILLER_15_295
*1338 FILLER_15_299
*1339 FILLER_15_3
*1340 FILLER_15_301
*1341 FILLER_15_31
*1342 FILLER_15_313
*1343 FILLER_15_325
*1344 FILLER_15_329
*1345 FILLER_15_331
*1346 FILLER_15_343
*1347 FILLER_15_355
*1348 FILLER_15_359
*1349 FILLER_15_361
*1350 FILLER_15_373
*1351 FILLER_15_385
*1352 FILLER_15_389
*1353 FILLER_15_391
*1354 FILLER_15_403
*1355 FILLER_15_415
*1356 FILLER_15_419
*1357 FILLER_15_421
*1358 FILLER_15_43
*1359 FILLER_15_433
*1360 FILLER_15_445
*1361 FILLER_15_449
*1362 FILLER_15_451
*1363 FILLER_15_463
*1364 FILLER_15_475
*1365 FILLER_15_479
*1366 FILLER_15_481
*1367 FILLER_15_493
*1368 FILLER_15_505
*1369 FILLER_15_509
*1370 FILLER_15_511
*1371 FILLER_15_515
*1372 FILLER_15_55
*1373 FILLER_15_59
*1374 FILLER_15_61
*1375 FILLER_15_73
*1376 FILLER_15_85
*1377 FILLER_15_89
*1378 FILLER_15_91
*1379 FILLER_16_100
*1380 FILLER_16_104
*1381 FILLER_16_106
*1382 FILLER_16_118
*1383 FILLER_16_130
*1384 FILLER_16_134
*1385 FILLER_16_136
*1386 FILLER_16_148
*1387 FILLER_16_16
*1388 FILLER_16_160
*1389 FILLER_16_164
*1390 FILLER_16_166
*1391 FILLER_16_178
*1392 FILLER_16_190
*1393 FILLER_16_194
*1394 FILLER_16_196
*1395 FILLER_16_208
*1396 FILLER_16_220
*1397 FILLER_16_224
*1398 FILLER_16_226
*1399 FILLER_16_238
*1400 FILLER_16_250
*1401 FILLER_16_254
*1402 FILLER_16_256
*1403 FILLER_16_268
*1404 FILLER_16_28
*1405 FILLER_16_280
*1406 FILLER_16_284
*1407 FILLER_16_286
*1408 FILLER_16_298
*1409 FILLER_16_3
*1410 FILLER_16_310
*1411 FILLER_16_314
*1412 FILLER_16_316
*1413 FILLER_16_328
*1414 FILLER_16_340
*1415 FILLER_16_344
*1416 FILLER_16_346
*1417 FILLER_16_358
*1418 FILLER_16_370
*1419 FILLER_16_374
*1420 FILLER_16_376
*1421 FILLER_16_388
*1422 FILLER_16_40
*1423 FILLER_16_400
*1424 FILLER_16_404
*1425 FILLER_16_406
*1426 FILLER_16_418
*1427 FILLER_16_430
*1428 FILLER_16_434
*1429 FILLER_16_436
*1430 FILLER_16_44
*1431 FILLER_16_448
*1432 FILLER_16_46
*1433 FILLER_16_460
*1434 FILLER_16_464
*1435 FILLER_16_466
*1436 FILLER_16_478
*1437 FILLER_16_490
*1438 FILLER_16_494
*1439 FILLER_16_496
*1440 FILLER_16_508
*1441 FILLER_16_58
*1442 FILLER_16_70
*1443 FILLER_16_74
*1444 FILLER_16_76
*1445 FILLER_16_88
*1446 FILLER_17_103
*1447 FILLER_17_115
*1448 FILLER_17_119
*1449 FILLER_17_121
*1450 FILLER_17_133
*1451 FILLER_17_145
*1452 FILLER_17_149
*1453 FILLER_17_15
*1454 FILLER_17_151
*1455 FILLER_17_163
*1456 FILLER_17_175
*1457 FILLER_17_179
*1458 FILLER_17_181
*1459 FILLER_17_193
*1460 FILLER_17_205
*1461 FILLER_17_209
*1462 FILLER_17_211
*1463 FILLER_17_223
*1464 FILLER_17_235
*1465 FILLER_17_239
*1466 FILLER_17_241
*1467 FILLER_17_253
*1468 FILLER_17_265
*1469 FILLER_17_269
*1470 FILLER_17_27
*1471 FILLER_17_271
*1472 FILLER_17_283
*1473 FILLER_17_295
*1474 FILLER_17_299
*1475 FILLER_17_3
*1476 FILLER_17_301
*1477 FILLER_17_31
*1478 FILLER_17_313
*1479 FILLER_17_325
*1480 FILLER_17_329
*1481 FILLER_17_331
*1482 FILLER_17_343
*1483 FILLER_17_355
*1484 FILLER_17_359
*1485 FILLER_17_361
*1486 FILLER_17_373
*1487 FILLER_17_385
*1488 FILLER_17_389
*1489 FILLER_17_391
*1490 FILLER_17_403
*1491 FILLER_17_415
*1492 FILLER_17_419
*1493 FILLER_17_421
*1494 FILLER_17_43
*1495 FILLER_17_433
*1496 FILLER_17_445
*1497 FILLER_17_449
*1498 FILLER_17_451
*1499 FILLER_17_463
*1500 FILLER_17_475
*1501 FILLER_17_479
*1502 FILLER_17_481
*1503 FILLER_17_493
*1504 FILLER_17_505
*1505 FILLER_17_509
*1506 FILLER_17_511
*1507 FILLER_17_515
*1508 FILLER_17_55
*1509 FILLER_17_59
*1510 FILLER_17_61
*1511 FILLER_17_73
*1512 FILLER_17_85
*1513 FILLER_17_89
*1514 FILLER_17_91
*1515 FILLER_18_100
*1516 FILLER_18_104
*1517 FILLER_18_106
*1518 FILLER_18_118
*1519 FILLER_18_130
*1520 FILLER_18_134
*1521 FILLER_18_136
*1522 FILLER_18_148
*1523 FILLER_18_16
*1524 FILLER_18_160
*1525 FILLER_18_164
*1526 FILLER_18_166
*1527 FILLER_18_178
*1528 FILLER_18_190
*1529 FILLER_18_194
*1530 FILLER_18_196
*1531 FILLER_18_208
*1532 FILLER_18_220
*1533 FILLER_18_224
*1534 FILLER_18_226
*1535 FILLER_18_238
*1536 FILLER_18_250
*1537 FILLER_18_254
*1538 FILLER_18_256
*1539 FILLER_18_268
*1540 FILLER_18_28
*1541 FILLER_18_280
*1542 FILLER_18_284
*1543 FILLER_18_286
*1544 FILLER_18_298
*1545 FILLER_18_3
*1546 FILLER_18_310
*1547 FILLER_18_314
*1548 FILLER_18_316
*1549 FILLER_18_328
*1550 FILLER_18_340
*1551 FILLER_18_344
*1552 FILLER_18_346
*1553 FILLER_18_358
*1554 FILLER_18_370
*1555 FILLER_18_374
*1556 FILLER_18_376
*1557 FILLER_18_388
*1558 FILLER_18_40
*1559 FILLER_18_400
*1560 FILLER_18_404
*1561 FILLER_18_406
*1562 FILLER_18_418
*1563 FILLER_18_430
*1564 FILLER_18_434
*1565 FILLER_18_436
*1566 FILLER_18_44
*1567 FILLER_18_448
*1568 FILLER_18_46
*1569 FILLER_18_460
*1570 FILLER_18_464
*1571 FILLER_18_466
*1572 FILLER_18_478
*1573 FILLER_18_490
*1574 FILLER_18_494
*1575 FILLER_18_496
*1576 FILLER_18_508
*1577 FILLER_18_58
*1578 FILLER_18_70
*1579 FILLER_18_74
*1580 FILLER_18_76
*1581 FILLER_18_88
*1582 FILLER_19_103
*1583 FILLER_19_115
*1584 FILLER_19_119
*1585 FILLER_19_121
*1586 FILLER_19_133
*1587 FILLER_19_145
*1588 FILLER_19_149
*1589 FILLER_19_15
*1590 FILLER_19_151
*1591 FILLER_19_163
*1592 FILLER_19_175
*1593 FILLER_19_179
*1594 FILLER_19_181
*1595 FILLER_19_193
*1596 FILLER_19_205
*1597 FILLER_19_209
*1598 FILLER_19_211
*1599 FILLER_19_223
*1600 FILLER_19_235
*1601 FILLER_19_239
*1602 FILLER_19_241
*1603 FILLER_19_253
*1604 FILLER_19_265
*1605 FILLER_19_269
*1606 FILLER_19_27
*1607 FILLER_19_271
*1608 FILLER_19_283
*1609 FILLER_19_295
*1610 FILLER_19_299
*1611 FILLER_19_3
*1612 FILLER_19_301
*1613 FILLER_19_31
*1614 FILLER_19_313
*1615 FILLER_19_325
*1616 FILLER_19_329
*1617 FILLER_19_331
*1618 FILLER_19_343
*1619 FILLER_19_355
*1620 FILLER_19_359
*1621 FILLER_19_361
*1622 FILLER_19_373
*1623 FILLER_19_385
*1624 FILLER_19_389
*1625 FILLER_19_391
*1626 FILLER_19_403
*1627 FILLER_19_415
*1628 FILLER_19_419
*1629 FILLER_19_421
*1630 FILLER_19_43
*1631 FILLER_19_433
*1632 FILLER_19_445
*1633 FILLER_19_449
*1634 FILLER_19_451
*1635 FILLER_19_463
*1636 FILLER_19_475
*1637 FILLER_19_479
*1638 FILLER_19_481
*1639 FILLER_19_493
*1640 FILLER_19_505
*1641 FILLER_19_509
*1642 FILLER_19_511
*1643 FILLER_19_515
*1644 FILLER_19_55
*1645 FILLER_19_59
*1646 FILLER_19_61
*1647 FILLER_19_73
*1648 FILLER_19_85
*1649 FILLER_19_89
*1650 FILLER_19_91
*1651 FILLER_1_101
*1652 FILLER_1_109
*1653 FILLER_1_113
*1654 FILLER_1_119
*1655 FILLER_1_124
*1656 FILLER_1_13
*1657 FILLER_1_131
*1658 FILLER_1_138
*1659 FILLER_1_145
*1660 FILLER_1_149
*1661 FILLER_1_154
*1662 FILLER_1_161
*1663 FILLER_1_168
*1664 FILLER_1_175
*1665 FILLER_1_179
*1666 FILLER_1_181
*1667 FILLER_1_185
*1668 FILLER_1_192
*1669 FILLER_1_199
*1670 FILLER_1_20
*1671 FILLER_1_206
*1672 FILLER_1_211
*1673 FILLER_1_236
*1674 FILLER_1_262
*1675 FILLER_1_28
*1676 FILLER_1_292
*1677 FILLER_1_322
*1678 FILLER_1_34
*1679 FILLER_1_352
*1680 FILLER_1_382
*1681 FILLER_1_394
*1682 FILLER_1_401
*1683 FILLER_1_408
*1684 FILLER_1_41
*1685 FILLER_1_415
*1686 FILLER_1_419
*1687 FILLER_1_424
*1688 FILLER_1_431
*1689 FILLER_1_438
*1690 FILLER_1_445
*1691 FILLER_1_449
*1692 FILLER_1_454
*1693 FILLER_1_461
*1694 FILLER_1_468
*1695 FILLER_1_475
*1696 FILLER_1_479
*1697 FILLER_1_48
*1698 FILLER_1_484
*1699 FILLER_1_491
*1700 FILLER_1_498
*1701 FILLER_1_505
*1702 FILLER_1_509
*1703 FILLER_1_511
*1704 FILLER_1_515
*1705 FILLER_1_55
*1706 FILLER_1_59
*1707 FILLER_1_6
*1708 FILLER_1_64
*1709 FILLER_1_71
*1710 FILLER_1_78
*1711 FILLER_1_85
*1712 FILLER_1_89
*1713 FILLER_1_94
*1714 FILLER_20_100
*1715 FILLER_20_104