*SPEF "ieee 1481-1999"
*DESIGN "macro_10"
*DATE "11:11:11 Fri 11 11, 1111"
*VENDOR "OpenRCX"
*PROGRAM "Parallel Extraction"
*VERSION "1.0"
*DESIGN_FLOW "NAME_SCOPE LOCAL" "PIN_CAP NONE"
*DIVIDER /
*DELIMITER :
*BUS_DELIMITER []
*T_UNIT 1 NS
*C_UNIT 1 PF
*R_UNIT 1 OHM
*L_UNIT 1 HENRY

*NAME_MAP
*1 active
*2 analog_io[0]
*3 analog_io[10]
*4 analog_io[11]
*5 analog_io[12]
*6 analog_io[13]
*7 analog_io[14]
*8 analog_io[15]
*9 analog_io[16]
*10 analog_io[17]
*11 analog_io[18]
*12 analog_io[19]
*13 analog_io[1]
*14 analog_io[20]
*15 analog_io[21]
*16 analog_io[22]
*17 analog_io[23]
*18 analog_io[24]
*19 analog_io[25]
*20 analog_io[26]
*21 analog_io[27]
*22 analog_io[28]
*23 analog_io[2]
*24 analog_io[3]
*25 analog_io[4]
*26 analog_io[5]
*27 analog_io[6]
*28 analog_io[7]
*29 analog_io[8]
*30 analog_io[9]
*31 io_in[0]
*32 io_in[10]
*33 io_in[11]
*34 io_in[12]
*35 io_in[13]
*36 io_in[14]
*37 io_in[15]
*38 io_in[16]
*39 io_in[17]
*40 io_in[18]
*41 io_in[19]
*42 io_in[1]
*43 io_in[20]
*44 io_in[21]
*45 io_in[22]
*46 io_in[23]
*47 io_in[24]
*48 io_in[25]
*49 io_in[26]
*50 io_in[27]
*51 io_in[28]
*52 io_in[29]
*53 io_in[2]
*54 io_in[30]
*55 io_in[31]
*56 io_in[32]
*57 io_in[33]
*58 io_in[34]
*59 io_in[35]
*60 io_in[36]
*61 io_in[37]
*62 io_in[3]
*63 io_in[4]
*64 io_in[5]
*65 io_in[6]
*66 io_in[7]
*67 io_in[8]
*68 io_in[9]
*69 net234
*70 net244
*71 net245
*72 net246
*73 net247
*74 net248
*75 net249
*76 net250
*77 net251
*78 net252
*79 net253
*80 net235
*81 net254
*82 net255
*83 net256
*84 net257
*85 net258
*86 net259
*87 net260
*88 net261
*89 net37
*90 net38
*91 net236
*92 net39
*93 net40
*94 net41
*95 net42
*96 net43
*97 net44
*98 net45
*99 net46
*100 net237
*101 net238
*102 net239
*103 net240
*104 net241
*105 net242
*106 net243
*107 io_out[0]
*108 io_out[10]
*109 io_out[11]
*110 io_out[12]
*111 io_out[13]
*112 io_out[14]
*113 io_out[15]
*114 io_out[16]
*115 io_out[17]
*116 net50
*117 net51
*118 net47
*119 net52
*120 net53
*121 net54
*122 net55
*123 net56
*124 net57
*125 net58
*126 net59
*127 net60
*128 net61
*129 net48
*130 net62
*131 net63
*132 net64
*133 net65
*134 net66
*135 net67
*136 net68
*137 net69
*138 net49
*139 io_out[4]
*140 io_out[5]
*141 io_out[6]
*142 io_out[7]
*143 io_out[8]
*144 io_out[9]
*145 la_data_in[0]
*146 la_data_in[100]
*147 la_data_in[101]
*148 la_data_in[102]
*149 la_data_in[103]
*150 la_data_in[104]
*151 la_data_in[105]
*152 la_data_in[106]
*153 la_data_in[107]
*154 la_data_in[108]
*155 la_data_in[109]
*156 la_data_in[10]
*157 la_data_in[110]
*158 la_data_in[111]
*159 la_data_in[112]
*160 la_data_in[113]
*161 la_data_in[114]
*162 la_data_in[115]
*163 la_data_in[116]
*164 la_data_in[117]
*165 la_data_in[118]
*166 la_data_in[119]
*167 la_data_in[11]
*168 la_data_in[120]
*169 la_data_in[121]
*170 la_data_in[122]
*171 la_data_in[123]
*172 la_data_in[124]
*173 la_data_in[125]
*174 la_data_in[126]
*175 la_data_in[127]
*176 la_data_in[12]
*177 la_data_in[13]
*178 la_data_in[14]
*179 la_data_in[15]
*180 la_data_in[16]
*181 la_data_in[17]
*182 la_data_in[18]
*183 la_data_in[19]
*184 la_data_in[1]
*185 la_data_in[20]
*186 la_data_in[21]
*187 la_data_in[22]
*188 la_data_in[23]
*189 la_data_in[24]
*190 la_data_in[25]
*191 la_data_in[26]
*192 la_data_in[27]
*193 la_data_in[28]
*194 la_data_in[29]
*195 la_data_in[2]
*196 la_data_in[30]
*197 la_data_in[31]
*198 la_data_in[32]
*199 la_data_in[33]
*200 la_data_in[34]
*201 la_data_in[35]
*202 la_data_in[36]
*203 la_data_in[37]
*204 la_data_in[38]
*205 la_data_in[39]
*206 la_data_in[3]
*207 la_data_in[40]
*208 la_data_in[41]
*209 la_data_in[42]
*210 la_data_in[43]
*211 la_data_in[44]
*212 la_data_in[45]
*213 la_data_in[46]
*214 la_data_in[47]
*215 la_data_in[48]
*216 la_data_in[49]
*217 la_data_in[4]
*218 la_data_in[50]
*219 la_data_in[51]
*220 la_data_in[52]
*221 la_data_in[53]
*222 la_data_in[54]
*223 la_data_in[55]
*224 la_data_in[56]
*225 la_data_in[57]
*226 la_data_in[58]
*227 la_data_in[59]
*228 la_data_in[5]
*229 la_data_in[60]
*230 la_data_in[61]
*231 la_data_in[62]
*232 la_data_in[63]
*233 la_data_in[64]
*234 la_data_in[65]
*235 la_data_in[66]
*236 la_data_in[67]
*237 la_data_in[68]
*238 la_data_in[69]
*239 la_data_in[6]
*240 la_data_in[70]
*241 la_data_in[71]
*242 la_data_in[72]
*243 la_data_in[73]
*244 la_data_in[74]
*245 la_data_in[75]
*246 la_data_in[76]
*247 la_data_in[77]
*248 la_data_in[78]
*249 la_data_in[79]
*250 la_data_in[7]
*251 la_data_in[80]
*252 la_data_in[81]
*253 la_data_in[82]
*254 la_data_in[83]
*255 la_data_in[84]
*256 la_data_in[85]
*257 la_data_in[86]
*258 la_data_in[87]
*259 la_data_in[88]
*260 la_data_in[89]
*261 la_data_in[8]
*262 la_data_in[90]
*263 la_data_in[91]
*264 la_data_in[92]
*265 la_data_in[93]
*266 la_data_in[94]
*267 la_data_in[95]
*268 la_data_in[96]
*269 la_data_in[97]
*270 la_data_in[98]
*271 la_data_in[99]
*272 la_data_in[9]
*273 net70
*274 net138
*275 net139
*276 net140
*277 net141
*278 net142
*279 net143
*280 net144
*281 net145
*282 net146
*283 net147
*284 net80
*285 net148
*286 net149
*287 net150
*288 net151
*289 net152
*290 net153
*291 net154
*292 net155
*293 net156
*294 net157
*295 net81
*296 net158
*297 net159
*298 net160
*299 net161
*300 net162
*301 net163
*302 net164
*303 net165
*304 net82
*305 net83
*306 net84
*307 net85
*308 net86
*309 net87
*310 net88
*311 net89
*312 net71
*313 net90
*314 net91
*315 net92
*316 net93
*317 net94
*318 net95
*319 net96
*320 net97
*321 net98
*322 net99
*323 net72
*324 net100
*325 net101
*326 la_data_out[32]
*327 la_data_out[33]
*328 la_data_out[34]
*329 la_data_out[35]
*330 la_data_out[36]
*331 la_data_out[37]
*332 la_data_out[38]
*333 la_data_out[39]
*334 net73
*335 la_data_out[40]
*336 la_data_out[41]
*337 la_data_out[42]
*338 la_data_out[43]
*339 la_data_out[44]
*340 la_data_out[45]
*341 la_data_out[46]
*342 la_data_out[47]
*343 la_data_out[48]
*344 la_data_out[49]
*345 net74
*346 la_data_out[50]
*347 la_data_out[51]
*348 la_data_out[52]
*349 la_data_out[53]
*350 la_data_out[54]
*351 la_data_out[55]
*352 la_data_out[56]
*353 la_data_out[57]
*354 la_data_out[58]
*355 la_data_out[59]
*356 net75
*357 la_data_out[60]
*358 la_data_out[61]
*359 la_data_out[62]
*360 la_data_out[63]
*361 net102
*362 net103
*363 net104
*364 net105
*365 net106
*366 net107
*367 net76
*368 net108
*369 net109
*370 net110
*371 net111
*372 net112
*373 net113
*374 net114
*375 net115
*376 net116
*377 net117
*378 net77
*379 net118
*380 net119
*381 net120
*382 net121
*383 net122
*384 net123
*385 net124
*386 net125
*387 net126
*388 net127
*389 net78
*390 net128
*391 net129
*392 net130
*393 net131
*394 net132
*395 net133
*396 net134
*397 net135
*398 net136
*399 net137
*400 net79
*401 la_oenb[0]
*402 la_oenb[100]
*403 la_oenb[101]
*404 la_oenb[102]
*405 la_oenb[103]
*406 la_oenb[104]
*407 la_oenb[105]
*408 la_oenb[106]
*409 la_oenb[107]
*410 la_oenb[108]
*411 la_oenb[109]
*412 la_oenb[10]
*413 la_oenb[110]
*414 la_oenb[111]
*415 la_oenb[112]
*416 la_oenb[113]
*417 la_oenb[114]
*418 la_oenb[115]
*419 la_oenb[116]
*420 la_oenb[117]
*421 la_oenb[118]
*422 la_oenb[119]
*423 la_oenb[11]
*424 la_oenb[120]
*425 la_oenb[121]
*426 la_oenb[122]
*427 la_oenb[123]
*428 la_oenb[124]
*429 la_oenb[125]
*430 la_oenb[126]
*431 la_oenb[127]
*432 la_oenb[12]
*433 la_oenb[13]
*434 la_oenb[14]
*435 la_oenb[15]
*436 la_oenb[16]
*437 la_oenb[17]
*438 la_oenb[18]
*439 la_oenb[19]
*440 la_oenb[1]
*441 la_oenb[20]
*442 la_oenb[21]
*443 la_oenb[22]
*444 la_oenb[23]
*445 la_oenb[24]
*446 la_oenb[25]
*447 la_oenb[26]
*448 la_oenb[27]
*449 la_oenb[28]
*450 la_oenb[29]
*451 la_oenb[2]
*452 la_oenb[30]
*453 la_oenb[31]
*454 la_oenb[32]
*455 la_oenb[33]
*456 la_oenb[34]
*457 la_oenb[35]
*458 la_oenb[36]
*459 la_oenb[37]
*460 la_oenb[38]
*461 la_oenb[39]
*462 la_oenb[3]
*463 la_oenb[40]
*464 la_oenb[41]
*465 la_oenb[42]
*466 la_oenb[43]
*467 la_oenb[44]
*468 la_oenb[45]
*469 la_oenb[46]
*470 la_oenb[47]
*471 la_oenb[48]
*472 la_oenb[49]
*473 la_oenb[4]
*474 la_oenb[50]
*475 la_oenb[51]
*476 la_oenb[52]
*477 la_oenb[53]
*478 la_oenb[54]
*479 la_oenb[55]
*480 la_oenb[56]
*481 la_oenb[57]
*482 la_oenb[58]
*483 la_oenb[59]
*484 la_oenb[5]
*485 la_oenb[60]
*486 la_oenb[61]
*487 la_oenb[62]
*488 la_oenb[63]
*489 la_oenb[64]
*490 la_oenb[65]
*491 la_oenb[66]
*492 la_oenb[67]
*493 la_oenb[68]
*494 la_oenb[69]
*495 la_oenb[6]
*496 la_oenb[70]
*497 la_oenb[71]
*498 la_oenb[72]
*499 la_oenb[73]
*500 la_oenb[74]
*501 la_oenb[75]
*502 la_oenb[76]
*503 la_oenb[77]
*504 la_oenb[78]
*505 la_oenb[79]
*506 la_oenb[7]
*507 la_oenb[80]
*508 la_oenb[81]
*509 la_oenb[82]
*510 la_oenb[83]
*511 la_oenb[84]
*512 la_oenb[85]
*513 la_oenb[86]
*514 la_oenb[87]
*515 la_oenb[88]
*516 la_oenb[89]
*517 la_oenb[8]
*518 la_oenb[90]
*519 la_oenb[91]
*520 la_oenb[92]
*521 la_oenb[93]
*522 la_oenb[94]
*523 la_oenb[95]
*524 la_oenb[96]
*525 la_oenb[97]
*526 la_oenb[98]
*527 la_oenb[99]
*528 la_oenb[9]
*529 user_clock2
*530 net166
*531 net167
*532 net168
*535 wb_clk_i
*536 wb_rst_i
*537 net169
*538 wbs_adr_i[0]
*539 wbs_adr_i[10]
*540 wbs_adr_i[11]
*541 wbs_adr_i[12]
*542 wbs_adr_i[13]
*543 wbs_adr_i[14]
*544 wbs_adr_i[15]
*545 wbs_adr_i[16]
*546 wbs_adr_i[17]
*547 wbs_adr_i[18]
*548 wbs_adr_i[19]
*549 wbs_adr_i[1]
*550 wbs_adr_i[20]
*551 wbs_adr_i[21]
*552 wbs_adr_i[22]
*553 wbs_adr_i[23]
*554 wbs_adr_i[24]
*555 wbs_adr_i[25]
*556 wbs_adr_i[26]
*557 wbs_adr_i[27]
*558 wbs_adr_i[28]
*559 wbs_adr_i[29]
*560 wbs_adr_i[2]
*561 wbs_adr_i[30]
*562 wbs_adr_i[31]
*563 wbs_adr_i[3]
*564 wbs_adr_i[4]
*565 wbs_adr_i[5]
*566 wbs_adr_i[6]
*567 wbs_adr_i[7]
*568 wbs_adr_i[8]
*569 wbs_adr_i[9]
*570 wbs_cyc_i
*571 wbs_dat_i[0]
*572 wbs_dat_i[10]
*573 wbs_dat_i[11]
*574 wbs_dat_i[12]
*575 wbs_dat_i[13]
*576 wbs_dat_i[14]
*577 wbs_dat_i[15]
*578 wbs_dat_i[16]
*579 wbs_dat_i[17]
*580 wbs_dat_i[18]
*581 wbs_dat_i[19]
*582 wbs_dat_i[1]
*583 wbs_dat_i[20]
*584 wbs_dat_i[21]
*585 wbs_dat_i[22]
*586 wbs_dat_i[23]
*587 wbs_dat_i[24]
*588 wbs_dat_i[25]
*589 wbs_dat_i[26]
*590 wbs_dat_i[27]
*591 wbs_dat_i[28]
*592 wbs_dat_i[29]
*593 wbs_dat_i[2]
*594 wbs_dat_i[30]
*595 wbs_dat_i[31]
*596 wbs_dat_i[3]
*597 wbs_dat_i[4]
*598 wbs_dat_i[5]
*599 wbs_dat_i[6]
*600 wbs_dat_i[7]
*601 wbs_dat_i[8]
*602 wbs_dat_i[9]
*603 net170
*604 net180
*605 net181
*606 net182
*607 net183
*608 net184
*609 net185
*610 net186
*611 net187
*612 net188
*613 net189
*614 net171
*615 net190
*616 net191
*617 net192
*618 net193
*619 net194
*620 net195
*621 net196
*622 net197
*623 net198
*624 net199
*625 net172
*626 net200
*627 net201
*628 net173
*629 net174
*630 net175
*631 net176
*632 net177
*633 net178
*634 net179
*635 wbs_sel_i[0]
*636 wbs_sel_i[1]
*637 wbs_sel_i[2]
*638 wbs_sel_i[3]
*639 wbs_stb_i
*640 wbs_we_i
*641 _000_
*642 _001_
*643 _002_
*644 _003_
*645 _004_
*646 _005_
*647 _006_
*648 _007_
*649 _008_
*650 _009_
*651 _010_
*652 _011_
*653 _012_
*654 _013_
*655 _014_
*656 _015_
*657 _016_
*658 _017_
*659 _018_
*660 _019_
*661 _020_
*662 _021_
*663 _022_
*664 _023_
*665 _024_
*666 _025_
*667 _026_
*668 _027_
*669 _028_
*670 _029_
*671 _030_
*672 _031_
*673 _032_
*674 _033_
*675 _034_
*676 _035_
*677 _036_
*678 _037_
*679 _038_
*680 _039_
*681 _040_
*682 _041_
*683 _042_
*684 _043_
*685 _044_
*686 _045_
*687 _046_
*688 _047_
*689 _048_
*690 _049_
*691 _050_
*692 _051_
*693 _052_
*694 _053_
*695 _054_
*696 _055_
*697 _056_
*698 _057_
*699 _058_
*700 _059_
*701 _060_
*702 _061_
*703 _062_
*704 _063_
*705 _064_
*706 _065_
*707 _066_
*708 _067_
*709 _068_
*710 _069_
*711 _070_
*712 _071_
*713 _072_
*714 _073_
*715 _074_
*716 _075_
*717 _076_
*718 _077_
*719 _078_
*720 _079_
*721 _080_
*722 _081_
*723 _082_
*724 _083_
*725 _084_
*726 _085_
*727 _086_
*728 _087_
*729 _088_
*730 _089_
*731 _090_
*732 _091_
*733 _092_
*734 _093_
*735 _094_
*736 _095_
*737 _096_
*738 _097_
*739 _098_
*740 _099_
*741 _100_
*742 _101_
*743 _102_
*744 _103_
*745 _104_
*746 _105_
*747 _106_
*748 _107_
*749 _108_
*750 _109_
*751 _110_
*752 _111_
*753 _112_
*754 _113_
*755 _114_
*756 _115_
*757 _116_
*758 _117_
*759 _118_
*760 _119_
*761 _120_
*762 _121_
*763 _122_
*764 _123_
*765 _124_
*766 _125_
*767 _126_
*768 _127_
*769 _128_
*770 _129_
*771 _130_
*772 _131_
*773 _132_
*774 _133_
*775 _134_
*776 _135_
*777 _136_
*778 _137_
*779 net1
*780 net10
*781 net11
*782 net12
*783 net13
*784 net14
*785 net15
*786 net16
*787 net17
*788 net18
*789 net19
*790 net2
*791 net20
*792 net202
*793 net203
*794 net204
*795 net205
*796 net206
*797 net207
*798 net208
*799 net209
*800 net21
*801 net210
*802 net211
*803 net212
*804 net213
*805 net214
*806 net215
*807 net216
*808 net217
*809 net218
*810 net219
*811 net22
*812 net220
*813 net221
*814 net222
*815 net223
*816 net224
*817 net225
*818 net226
*819 net227
*820 net228
*821 net229
*822 net23
*823 net230
*824 net231
*825 net232
*826 net233
*827 net24
*828 net25
*829 net26
*830 net27
*831 net28
*832 net29
*833 net3
*834 net30
*835 net31
*836 net32
*837 net33
*838 net34
*839 net35
*840 net36
*841 net4
*842 net5
*843 net6
*844 net7
*845 net8
*846 net9
*847 ANTENNA__170__A
*848 ANTENNA__171__A
*849 ANTENNA__172__A
*850 ANTENNA__197__A
*851 ANTENNA__203__A
*852 ANTENNA__211__A_N
*853 ANTENNA__211__B
*854 ANTENNA__212__A1
*855 ANTENNA__213__A
*856 ANTENNA__216__A
*857 ANTENNA__228__A1
*858 ANTENNA__230__A
*859 ANTENNA__233__A
*860 ANTENNA__234__A_N
*861 ANTENNA__234__B
*862 ANTENNA__235__A1
*863 ANTENNA__235__A2
*864 ANTENNA__236__A
*865 ANTENNA__237__A
*866 ANTENNA__238__A1
*867 ANTENNA__239__A
*868 ANTENNA__240__A
*869 ANTENNA__241__A
*870 ANTENNA__243__A1
*871 ANTENNA__243__B1_N
*872 ANTENNA__244__B1
*873 ANTENNA__245__A
*874 ANTENNA__246__A
*875 ANTENNA__248__A
*876 ANTENNA__249__A
*877 ANTENNA__251__A1
*878 ANTENNA__253__A
*879 ANTENNA__258__B1
*880 ANTENNA__258__B2
*881 ANTENNA__259__A
*882 ANTENNA__260__B2
*883 ANTENNA__263__A
*884 ANTENNA__264__A2_N
*885 ANTENNA__264__B2
*886 ANTENNA__265__A2
*887 ANTENNA__266__A3
*888 ANTENNA__267__A
*889 ANTENNA__270__A
*890 ANTENNA__272__B1
*891 ANTENNA__272__B2
*892 ANTENNA__275__A
*893 ANTENNA__276__A2
*894 ANTENNA__281__A
*895 ANTENNA__282__A2
*896 ANTENNA__282__B1
*897 ANTENNA__289__B1
*898 ANTENNA__289__B2
*899 ANTENNA__290__B1
*900 ANTENNA__294__B1
*901 ANTENNA__295__A1
*902 ANTENNA__296__A2
*903 ANTENNA__296__B1
*904 ANTENNA__297__B
*905 ANTENNA__298__A
*906 ANTENNA__306__B1
*907 ANTENNA__311__A1
*908 ANTENNA__312__A1
*909 ANTENNA__317__A1
*910 ANTENNA__317__B1
*911 ANTENNA__318__A1
*912 ANTENNA__321__C1
*913 ANTENNA__322__B1
*914 ANTENNA_input10_A
*915 ANTENNA_input11_A
*916 ANTENNA_input12_A
*917 ANTENNA_input13_A
*918 ANTENNA_input14_A
*919 ANTENNA_input15_A
*920 ANTENNA_input16_A
*921 ANTENNA_input17_A
*922 ANTENNA_input18_A
*923 ANTENNA_input19_A
*924 ANTENNA_input1_A
*925 ANTENNA_input20_A
*926 ANTENNA_input21_A
*927 ANTENNA_input2_A
*928 ANTENNA_input3_A
*929 ANTENNA_input4_A
*930 ANTENNA_input5_A
*931 ANTENNA_input6_A
*932 ANTENNA_input7_A
*933 ANTENNA_input8_A
*934 ANTENNA_input9_A
*935 ANTENNA_output22_A
*936 ANTENNA_output23_A
*937 ANTENNA_output24_A
*938 ANTENNA_output25_A
*939 ANTENNA_output26_A
*940 ANTENNA_output27_A
*941 ANTENNA_output28_A
*942 ANTENNA_output31_A
*943 ANTENNA_output32_A
*944 ANTENNA_output33_A
*945 ANTENNA_output34_A
*946 ANTENNA_output35_A
*947 ANTENNA_output36_A
*948 FILLER_0_1001
*949 FILLER_0_1007
*950 FILLER_0_1012
*951 FILLER_0_1024
*952 FILLER_0_1028
*953 FILLER_0_1030
*954 FILLER_0_1035
*955 FILLER_0_104
*956 FILLER_0_1041
*957 FILLER_0_1045
*958 FILLER_0_1049
*959 FILLER_0_1051
*960 FILLER_0_1055
*961 FILLER_0_1059
*962 FILLER_0_106
*963 FILLER_0_1066
*964 FILLER_0_1070
*965 FILLER_0_1072
*966 FILLER_0_1084
*967 FILLER_0_1093
*968 FILLER_0_110
*969 FILLER_0_1105
*970 FILLER_0_1117
*971 FILLER_0_1129
*972 FILLER_0_1133
*973 FILLER_0_1135
*974 FILLER_0_1147
*975 FILLER_0_1156
*976 FILLER_0_1165
*977 FILLER_0_1173
*978 FILLER_0_118
*979 FILLER_0_1180
*980 FILLER_0_1189
*981 FILLER_0_1201
*982 FILLER_0_1212
*983 FILLER_0_1219
*984 FILLER_0_122
*985 FILLER_0_1224
*986 FILLER_0_1236
*987 FILLER_0_1243
*988 FILLER_0_1250
*989 FILLER_0_1258
*990 FILLER_0_1264
*991 FILLER_0_127
*992 FILLER_0_1271
*993 FILLER_0_1279
*994 FILLER_0_1285
*995 FILLER_0_1291
*996 FILLER_0_1295
*997 FILLER_0_1301
*998 FILLER_0_1306
*999 FILLER_0_1314
*1000 FILLER_0_1318
*1001 FILLER_0_1322
*1002 FILLER_0_1324
*1003 FILLER_0_1330
*1004 FILLER_0_134
*1005 FILLER_0_1342
*1006 FILLER_0_1348
*1007 FILLER_0_1355
*1008 FILLER_0_1363
*1009 FILLER_0_1369
*1010 FILLER_0_1373
*1011 FILLER_0_1377
*1012 FILLER_0_1385
*1013 FILLER_0_1390
*1014 FILLER_0_1396
*1015 FILLER_0_1400
*1016 FILLER_0_1406
*1017 FILLER_0_1408
*1018 FILLER_0_1412
*1019 FILLER_0_1420
*1020 FILLER_0_1424
*1021 FILLER_0_1429
*1022 FILLER_0_1436
*1023 FILLER_0_1448
*1024 FILLER_0_1453
*1025 FILLER_0_146
*1026 FILLER_0_1460
*1027 FILLER_0_1468
*1028 FILLER_0_1474
*1029 FILLER_0_1483
*1030 FILLER_0_1495
*1031 FILLER_0_1506
*1032 FILLER_0_151
*1033 FILLER_0_1513
*1034 FILLER_0_1518
*1035 FILLER_0_1530
*1036 FILLER_0_1537
*1037 FILLER_0_1544
*1038 FILLER_0_1552
*1039 FILLER_0_1558
*1040 FILLER_0_1565
*1041 FILLER_0_1573
*1042 FILLER_0_1579
*1043 FILLER_0_158
*1044 FILLER_0_1585
*1045 FILLER_0_1589
*1046 FILLER_0_1595
*1047 FILLER_0_1600
*1048 FILLER_0_1608
*1049 FILLER_0_1612
*1050 FILLER_0_1616
*1051 FILLER_0_1618
*1052 FILLER_0_1624
*1053 FILLER_0_1636
*1054 FILLER_0_1642
*1055 FILLER_0_1649
*1056 FILLER_0_1657
*1057 FILLER_0_166
*1058 FILLER_0_1663
*1059 FILLER_0_1667
*1060 FILLER_0_1671
*1061 FILLER_0_1679
*1062 FILLER_0_1684
*1063 FILLER_0_1695
*1064 FILLER_0_1702
*1065 FILLER_0_1706
*1066 FILLER_0_1714
*1067 FILLER_0_1718
*1068 FILLER_0_172
*1069 FILLER_0_1723
*1070 FILLER_0_1730
*1071 FILLER_0_1742
*1072 FILLER_0_1747
*1073 FILLER_0_1754
*1074 FILLER_0_1762
*1075 FILLER_0_1768
*1076 FILLER_0_1777
*1077 FILLER_0_1789
*1078 FILLER_0_18
*1079 FILLER_0_1800
*1080 FILLER_0_1807
*1081 FILLER_0_181
*1082 FILLER_0_1812
*1083 FILLER_0_1824
*1084 FILLER_0_1831
*1085 FILLER_0_1838
*1086 FILLER_0_1846
*1087 FILLER_0_1852
*1088 FILLER_0_1859
*1089 FILLER_0_1867
*1090 FILLER_0_1873
*1091 FILLER_0_1879
*1092 FILLER_0_1883
*1093 FILLER_0_1889
*1094 FILLER_0_1891
*1095 FILLER_0_1895
*1096 FILLER_0_1906
*1097 FILLER_0_1910
*1098 FILLER_0_1912
*1099 FILLER_0_1924
*1100 FILLER_0_1928
*1101 FILLER_0_193
*1102 FILLER_0_204
*1103 FILLER_0_211
*1104 FILLER_0_216
*1105 FILLER_0_228
*1106 FILLER_0_235
*1107 FILLER_0_242
*1108 FILLER_0_25
*1109 FILLER_0_250
*1110 FILLER_0_256
*1111 FILLER_0_263
*1112 FILLER_0_271
*1113 FILLER_0_277
*1114 FILLER_0_283
*1115 FILLER_0_287
*1116 FILLER_0_293
*1117 FILLER_0_298
*1118 FILLER_0_306
*1119 FILLER_0_310
*1120 FILLER_0_314
*1121 FILLER_0_316
*1122 FILLER_0_322
*1123 FILLER_0_334
*1124 FILLER_0_340
*1125 FILLER_0_347
*1126 FILLER_0_355
*1127 FILLER_0_361
*1128 FILLER_0_365
*1129 FILLER_0_369
*1130 FILLER_0_37
*1131 FILLER_0_377
*1132 FILLER_0_382
*1133 FILLER_0_393
*1134 FILLER_0_400
*1135 FILLER_0_404
*1136 FILLER_0_408
*1137 FILLER_0_41
*1138 FILLER_0_412
*1139 FILLER_0_424
*1140 FILLER_0_432
*1141 FILLER_0_436
*1142 FILLER_0_440
*1143 FILLER_0_442
*1144 FILLER_0_447
*1145 FILLER_0_459
*1146 FILLER_0_46
*1147 FILLER_0_466
*1148 FILLER_0_473
*1149 FILLER_0_481
*1150 FILLER_0_487
*1151 FILLER_0_494
*1152 FILLER_0_502
*1153 FILLER_0_508
*1154 FILLER_0_514
*1155 FILLER_0_518
*1156 FILLER_0_524
*1157 FILLER_0_526
*1158 FILLER_0_530
*1159 FILLER_0_538
*1160 FILLER_0_542
*1161 FILLER_0_547
*1162 FILLER_0_55
*1163 FILLER_0_553
*1164 FILLER_0_565
*1165 FILLER_0_571
*1166 FILLER_0_578
*1167 FILLER_0_586
*1168 FILLER_0_592
*1169 FILLER_0_596
*1170 FILLER_0_6
*1171 FILLER_0_600
*1172 FILLER_0_608
*1173 FILLER_0_613
*1174 FILLER_0_624
*1175 FILLER_0_631
*1176 FILLER_0_636
*1177 FILLER_0_64
*1178 FILLER_0_647
*1179 FILLER_0_652
*1180 FILLER_0_659
*1181 FILLER_0_671
*1182 FILLER_0_676
*1183 FILLER_0_683
*1184 FILLER_0_691
*1185 FILLER_0_697
*1186 FILLER_0_706
*1187 FILLER_0_71
*1188 FILLER_0_718
*1189 FILLER_0_726
*1190 FILLER_0_730
*1191 FILLER_0_734
*1192 FILLER_0_736
*1193 FILLER_0_742
*1194 FILLER_0_754
*1195 FILLER_0_760
*1196 FILLER_0_767
*1197 FILLER_0_775
*1198 FILLER_0_781
*1199 FILLER_0_793
*1200 FILLER_0_797
*1201 FILLER_0_799
*1202 FILLER_0_811
*1203 FILLER_0_823
*1204 FILLER_0_83
*1205 FILLER_0_830
*1206 FILLER_0_838
*1207 FILLER_0_841
*1208 FILLER_0_853
*1209 FILLER_0_862
*1210 FILLER_0_866
*1211 FILLER_0_870
*1212 FILLER_0_877
*1213 FILLER_0_88
*1214 FILLER_0_881
*1215 FILLER_0_885
*1216 FILLER_0_897
*1217 FILLER_0_904
*1218 FILLER_0_916
*1219 FILLER_0_920
*1220 FILLER_0_928
*1221 FILLER_0_935
*1222 FILLER_0_94
*1223 FILLER_0_943
*1224 FILLER_0_946
*1225 FILLER_0_950
*1226 FILLER_0_957
*1227 FILLER_0_965
*1228 FILLER_0_967
*1229 FILLER_0_979
*1230 FILLER_0_98
*1231 FILLER_0_983
*1232 FILLER_0_988
*1233 FILLER_0_994
*1234 FILLER_100_1004
*1235 FILLER_100_101
*1236 FILLER_100_1011
*1237 FILLER_100_1023
*1238 FILLER_100_1035
*1239 FILLER_100_1047
*1240 FILLER_100_1054
*1241 FILLER_100_1066
*1242 FILLER_100_1078
*1243 FILLER_100_108
*1244 FILLER_100_1090
*1245 FILLER_100_1097
*1246 FILLER_100_1109
*1247 FILLER_100_1121
*1248 FILLER_100_1133
*1249 FILLER_100_1140
*1250 FILLER_100_1152
*1251 FILLER_100_1164
*1252 FILLER_100_1176
*1253 FILLER_100_1183
*1254 FILLER_100_1195
*1255 FILLER_100_120
*1256 FILLER_100_1207
*1257 FILLER_100_1219
*1258 FILLER_100_1226
*1259 FILLER_100_1238
*1260 FILLER_100_1250
*1261 FILLER_100_1262
*1262 FILLER_100_1269
*1263 FILLER_100_1281
*1264 FILLER_100_1293
*1265 FILLER_100_1305
*1266 FILLER_100_1312
*1267 FILLER_100_132
*1268 FILLER_100_1324
*1269 FILLER_100_1336
*1270 FILLER_100_1348
*1271 FILLER_100_1355
*1272 FILLER_100_1367
*1273 FILLER_100_1379
*1274 FILLER_100_1391
*1275 FILLER_100_1398
*1276 FILLER_100_1410
*1277 FILLER_100_1422
*1278 FILLER_100_1434
*1279 FILLER_100_144
*1280 FILLER_100_1441
*1281 FILLER_100_1453
*1282 FILLER_100_1465
*1283 FILLER_100_1477
*1284 FILLER_100_1484
*1285 FILLER_100_1496
*1286 FILLER_100_15
*1287 FILLER_100_1508
*1288 FILLER_100_151
*1289 FILLER_100_1520
*1290 FILLER_100_1527
*1291 FILLER_100_1539
*1292 FILLER_100_1551
*1293 FILLER_100_1563
*1294 FILLER_100_1570
*1295 FILLER_100_1582
*1296 FILLER_100_1594
*1297 FILLER_100_1606
*1298 FILLER_100_1613
*1299 FILLER_100_1625
*1300 FILLER_100_163
*1301 FILLER_100_1637
*1302 FILLER_100_1649
*1303 FILLER_100_1656
*1304 FILLER_100_1668
*1305 FILLER_100_1680
*1306 FILLER_100_1692
*1307 FILLER_100_1699
*1308 FILLER_100_1711
*1309 FILLER_100_1723
*1310 FILLER_100_1735
*1311 FILLER_100_1742
*1312 FILLER_100_175
*1313 FILLER_100_1754
*1314 FILLER_100_1766
*1315 FILLER_100_1778
*1316 FILLER_100_1785
*1317 FILLER_100_1797
*1318 FILLER_100_1809
*1319 FILLER_100_1821
*1320 FILLER_100_1828
*1321 FILLER_100_1840
*1322 FILLER_100_1852
*1323 FILLER_100_1864
*1324 FILLER_100_187
*1325 FILLER_100_1871
*1326 FILLER_100_1883
*1327 FILLER_100_1895
*1328 FILLER_100_1907
*1329 FILLER_100_1914
*1330 FILLER_100_1926
*1331 FILLER_100_194
*1332 FILLER_100_206
*1333 FILLER_100_218
*1334 FILLER_100_22
*1335 FILLER_100_230
*1336 FILLER_100_237
*1337 FILLER_100_249
*1338 FILLER_100_261
*1339 FILLER_100_273
*1340 FILLER_100_280
*1341 FILLER_100_292
*1342 FILLER_100_3
*1343 FILLER_100_304
*1344 FILLER_100_316
*1345 FILLER_100_323
*1346 FILLER_100_335
*1347 FILLER_100_34
*1348 FILLER_100_347
*1349 FILLER_100_359
*1350 FILLER_100_366
*1351 FILLER_100_378
*1352 FILLER_100_390
*1353 FILLER_100_402
*1354 FILLER_100_409
*1355 FILLER_100_421
*1356 FILLER_100_433
*1357 FILLER_100_445
*1358 FILLER_100_452
*1359 FILLER_100_46
*1360 FILLER_100_464
*1361 FILLER_100_476
*1362 FILLER_100_488
*1363 FILLER_100_495
*1364 FILLER_100_507
*1365 FILLER_100_519
*1366 FILLER_100_531
*1367 FILLER_100_538
*1368 FILLER_100_550
*1369 FILLER_100_562
*1370 FILLER_100_574
*1371 FILLER_100_58
*1372 FILLER_100_581
*1373 FILLER_100_593
*1374 FILLER_100_605
*1375 FILLER_100_617
*1376 FILLER_100_624
*1377 FILLER_100_636
*1378 FILLER_100_648
*1379 FILLER_100_65
*1380 FILLER_100_660
*1381 FILLER_100_667
*1382 FILLER_100_679
*1383 FILLER_100_691
*1384 FILLER_100_703
*1385 FILLER_100_710
*1386 FILLER_100_722
*1387 FILLER_100_734
*1388 FILLER_100_746
*1389 FILLER_100_753
*1390 FILLER_100_765
*1391 FILLER_100_77
*1392 FILLER_100_777
*1393 FILLER_100_789
*1394 FILLER_100_796
*1395 FILLER_100_808
*1396 FILLER_100_820
*1397 FILLER_100_832
*1398 FILLER_100_839
*1399 FILLER_100_851
*1400 FILLER_100_863
*1401 FILLER_100_875
*1402 FILLER_100_882
*1403 FILLER_100_89
*1404 FILLER_100_894
*1405 FILLER_100_906
*1406 FILLER_100_918
*1407 FILLER_100_925
*1408 FILLER_100_937
*1409 FILLER_100_949
*1410 FILLER_100_961
*1411 FILLER_100_968
*1412 FILLER_100_980
*1413 FILLER_100_992
*1414 FILLER_101_1002
*1415 FILLER_101_1014
*1416 FILLER_101_1026
*1417 FILLER_101_1033
*1418 FILLER_101_1045
*1419 FILLER_101_1057
*1420 FILLER_101_1069
*1421 FILLER_101_1076
*1422 FILLER_101_1088
*1423 FILLER_101_1100
*1424 FILLER_101_111
*1425 FILLER_101_1112
*1426 FILLER_101_1119
*1427 FILLER_101_1131
*1428 FILLER_101_1143
*1429 FILLER_101_1155
*1430 FILLER_101_1162
*1431 FILLER_101_1174
*1432 FILLER_101_1186
*1433 FILLER_101_1198
*1434 FILLER_101_1205
*1435 FILLER_101_1217
*1436 FILLER_101_1229
*1437 FILLER_101_123
*1438 FILLER_101_1241
*1439 FILLER_101_1248
*1440 FILLER_101_1260
*1441 FILLER_101_1272
*1442 FILLER_101_1284
*1443 FILLER_101_1291
*1444 FILLER_101_130
*1445 FILLER_101_1303
*1446 FILLER_101_1315
*1447 FILLER_101_1327
*1448 FILLER_101_1334
*1449 FILLER_101_1346
*1450 FILLER_101_1358
*1451 FILLER_101_1370
*1452 FILLER_101_1377
*1453 FILLER_101_1389
*1454 FILLER_101_1401
*1455 FILLER_101_1413
*1456 FILLER_101_142
*1457 FILLER_101_1420
*1458 FILLER_101_1432
*1459 FILLER_101_1444
*1460 FILLER_101_1456
*1461 FILLER_101_1463
*1462 FILLER_101_1475
*1463 FILLER_101_1487
*1464 FILLER_101_1499
*1465 FILLER_101_15
*1466 FILLER_101_1506
*1467 FILLER_101_1518
*1468 FILLER_101_1530
*1469 FILLER_101_154
*1470 FILLER_101_1542
*1471 FILLER_101_1549
*1472 FILLER_101_1561
*1473 FILLER_101_1573
*1474 FILLER_101_1585
*1475 FILLER_101_1592
*1476 FILLER_101_1604
*1477 FILLER_101_1616
*1478 FILLER_101_1628
*1479 FILLER_101_1635
*1480 FILLER_101_1647
*1481 FILLER_101_1659
*1482 FILLER_101_166
*1483 FILLER_101_1671
*1484 FILLER_101_1678
*1485 FILLER_101_1690
*1486 FILLER_101_1702
*1487 FILLER_101_1714
*1488 FILLER_101_1721
*1489 FILLER_101_173
*1490 FILLER_101_1733
*1491 FILLER_101_1745
*1492 FILLER_101_1757
*1493 FILLER_101_1764
*1494 FILLER_101_1776
*1495 FILLER_101_1788
*1496 FILLER_101_1800
*1497 FILLER_101_1807
*1498 FILLER_101_1819
*1499 FILLER_101_1831
*1500 FILLER_101_1843
*1501 FILLER_101_185
*1502 FILLER_101_1850
*1503 FILLER_101_1862
*1504 FILLER_101_1874
*1505 FILLER_101_1886
*1506 FILLER_101_1893
*1507 FILLER_101_1905
*1508 FILLER_101_1917
*1509 FILLER_101_197
*1510 FILLER_101_209
*1511 FILLER_101_216
*1512 FILLER_101_228
*1513 FILLER_101_240
*1514 FILLER_101_252
*1515 FILLER_101_259
*1516 FILLER_101_27
*1517 FILLER_101_271
*1518 FILLER_101_283
*1519 FILLER_101_295
*1520 FILLER_101_3
*1521 FILLER_101_302
*1522 FILLER_101_314
*1523 FILLER_101_326
*1524 FILLER_101_338
*1525 FILLER_101_345
*1526 FILLER_101_357
*1527 FILLER_101_369
*1528 FILLER_101_381
*1529 FILLER_101_388
*1530 FILLER_101_39
*1531 FILLER_101_400
*1532 FILLER_101_412
*1533 FILLER_101_424
*1534 FILLER_101_431
*1535 FILLER_101_44
*1536 FILLER_101_443
*1537 FILLER_101_455
*1538 FILLER_101_467
*1539 FILLER_101_474
*1540 FILLER_101_486
*1541 FILLER_101_498
*1542 FILLER_101_510
*1543 FILLER_101_517
*1544 FILLER_101_529
*1545 FILLER_101_541
*1546 FILLER_101_553
*1547 FILLER_101_56
*1548 FILLER_101_560
*1549 FILLER_101_572
*1550 FILLER_101_584
*1551 FILLER_101_596
*1552 FILLER_101_603
*1553 FILLER_101_615
*1554 FILLER_101_627
*1555 FILLER_101_639
*1556 FILLER_101_646
*1557 FILLER_101_658
*1558 FILLER_101_670
*1559 FILLER_101_68
*1560 FILLER_101_682
*1561 FILLER_101_689
*1562 FILLER_101_701
*1563 FILLER_101_713
*1564 FILLER_101_725
*1565 FILLER_101_732
*1566 FILLER_101_744
*1567 FILLER_101_756
*1568 FILLER_101_768
*1569 FILLER_101_775
*1570 FILLER_101_787
*1571 FILLER_101_799
*1572 FILLER_101_80
*1573 FILLER_101_811
*1574 FILLER_101_818
*1575 FILLER_101_830
*1576 FILLER_101_842
*1577 FILLER_101_854
*1578 FILLER_101_861
*1579 FILLER_101_87
*1580 FILLER_101_873
*1581 FILLER_101_885
*1582 FILLER_101_897
*1583 FILLER_101_904
*1584 FILLER_101_916
*1585 FILLER_101_928
*1586 FILLER_101_940
*1587 FILLER_101_947
*1588 FILLER_101_959
*1589 FILLER_101_971
*1590 FILLER_101_983
*1591 FILLER_101_99
*1592 FILLER_101_990
*1593 FILLER_102_1004
*1594 FILLER_102_101
*1595 FILLER_102_1011
*1596 FILLER_102_1023
*1597 FILLER_102_1035
*1598 FILLER_102_1047
*1599 FILLER_102_1054
*1600 FILLER_102_1066
*1601 FILLER_102_1078
*1602 FILLER_102_108
*1603 FILLER_102_1090
*1604 FILLER_102_1097
*1605 FILLER_102_1109
*1606 FILLER_102_1121
*1607 FILLER_102_1133
*1608 FILLER_102_1140
*1609 FILLER_102_1152
*1610 FILLER_102_1164
*1611 FILLER_102_1176
*1612 FILLER_102_1183
*1613 FILLER_102_1195
*1614 FILLER_102_120
*1615 FILLER_102_1207
*1616 FILLER_102_1219
*1617 FILLER_102_1226
*1618 FILLER_102_1238
*1619 FILLER_102_1250
*1620 FILLER_102_1262
*1621 FILLER_102_1269
*1622 FILLER_102_1281
*1623 FILLER_102_1293
*1624 FILLER_102_1305
*1625 FILLER_102_1312
*1626 FILLER_102_132
*1627 FILLER_102_1324
*1628 FILLER_102_1336
*1629 FILLER_102_1348
*1630 FILLER_102_1355
*1631 FILLER_102_1367
*1632 FILLER_102_1379
*1633 FILLER_102_1391
*1634 FILLER_102_1398
*1635 FILLER_102_1410
*1636 FILLER_102_1422
*1637 FILLER_102_1434
*1638 FILLER_102_144
*1639 FILLER_102_1441
*1640 FILLER_102_1453
*1641 FILLER_102_1465
*1642 FILLER_102_1477
*1643 FILLER_102_1484
*1644 FILLER_102_1496
*1645 FILLER_102_15
*1646 FILLER_102_1508
*1647 FILLER_102_151
*1648 FILLER_102_1520
*1649 FILLER_102_1527
*1650 FILLER_102_1539
*1651 FILLER_102_1551
*1652 FILLER_102_1563
*1653 FILLER_102_1570
*1654 FILLER_102_1582
*1655 FILLER_102_1594
*1656 FILLER_102_1606
*1657 FILLER_102_1613
*1658 FILLER_102_1625
*1659 FILLER_102_163
*1660 FILLER_102_1637
*1661 FILLER_102_1649
*1662 FILLER_102_1656
*1663 FILLER_102_1668
*1664 FILLER_102_1680
*1665 FILLER_102_1692
*1666 FILLER_102_1699
*1667 FILLER_102_1711
*1668 FILLER_102_1723
*1669 FILLER_102_1735