*SPEF "ieee 1481-1999"
*DESIGN "macro_test"
*DATE "11:11:11 Fri 11 11, 1111"
*VENDOR "OpenRCX"
*PROGRAM "Parallel Extraction"
*VERSION "1.0"
*DESIGN_FLOW "NAME_SCOPE LOCAL" "PIN_CAP NONE"
*DIVIDER /
*DELIMITER :
*BUS_DELIMITER []
*T_UNIT 1 NS
*C_UNIT 1 PF
*R_UNIT 1 OHM
*L_UNIT 1 HENRY

*NAME_MAP
*1 la_data_in[0]
*2 la_data_in[100]
*3 la_data_in[101]
*4 la_data_in[102]
*5 la_data_in[103]
*6 la_data_in[104]
*7 la_data_in[105]
*8 la_data_in[106]
*9 la_data_in[107]
*10 la_data_in[108]
*11 la_data_in[109]
*12 la_data_in[10]
*13 la_data_in[110]
*14 la_data_in[111]
*15 la_data_in[112]
*16 la_data_in[113]
*17 la_data_in[114]
*18 la_data_in[115]
*19 la_data_in[116]
*20 la_data_in[117]
*21 la_data_in[118]
*22 la_data_in[119]
*23 la_data_in[11]
*24 la_data_in[120]
*25 la_data_in[121]
*26 la_data_in[122]
*27 la_data_in[123]
*28 la_data_in[124]
*29 la_data_in[125]
*30 la_data_in[126]
*31 la_data_in[127]
*32 la_data_in[12]
*33 la_data_in[13]
*34 la_data_in[14]
*35 la_data_in[15]
*36 la_data_in[16]
*37 la_data_in[17]
*38 la_data_in[18]
*39 la_data_in[19]
*40 la_data_in[1]
*41 la_data_in[20]
*42 la_data_in[21]
*43 la_data_in[22]
*44 la_data_in[23]
*45 la_data_in[24]
*46 la_data_in[25]
*47 la_data_in[26]
*48 la_data_in[27]
*49 la_data_in[28]
*50 la_data_in[29]
*51 la_data_in[2]
*52 la_data_in[30]
*53 la_data_in[31]
*54 la_data_in[32]
*55 la_data_in[33]
*56 la_data_in[34]
*57 la_data_in[35]
*58 la_data_in[36]
*59 la_data_in[37]
*60 la_data_in[38]
*61 la_data_in[39]
*62 la_data_in[3]
*63 la_data_in[40]
*64 la_data_in[41]
*65 la_data_in[42]
*66 la_data_in[43]
*67 la_data_in[44]
*68 la_data_in[45]
*69 la_data_in[46]
*70 la_data_in[47]
*71 la_data_in[48]
*72 la_data_in[49]
*73 la_data_in[4]
*74 la_data_in[50]
*75 la_data_in[51]
*76 la_data_in[52]
*77 la_data_in[53]
*78 la_data_in[54]
*79 la_data_in[55]
*80 la_data_in[56]
*81 la_data_in[57]
*82 la_data_in[58]
*83 la_data_in[59]
*84 la_data_in[5]
*85 la_data_in[60]
*86 la_data_in[61]
*87 la_data_in[62]
*88 la_data_in[63]
*89 la_data_in[64]
*90 la_data_in[65]
*91 la_data_in[66]
*92 la_data_in[67]
*93 la_data_in[68]
*94 la_data_in[69]
*95 la_data_in[6]
*96 la_data_in[70]
*97 la_data_in[71]
*98 la_data_in[72]
*99 la_data_in[73]
*100 la_data_in[74]
*101 la_data_in[75]
*102 la_data_in[76]
*103 la_data_in[77]
*104 la_data_in[78]
*105 la_data_in[79]
*106 la_data_in[7]
*107 la_data_in[80]
*108 la_data_in[81]
*109 la_data_in[82]
*110 la_data_in[83]
*111 la_data_in[84]
*112 la_data_in[85]
*113 la_data_in[86]
*114 la_data_in[87]
*115 la_data_in[88]
*116 la_data_in[89]
*117 la_data_in[8]
*118 la_data_in[90]
*119 la_data_in[91]
*120 la_data_in[92]
*121 la_data_in[93]
*122 la_data_in[94]
*123 la_data_in[95]
*124 la_data_in[96]
*125 la_data_in[97]
*126 la_data_in[98]
*127 la_data_in[99]
*128 la_data_in[9]
*129 la_data_out[0]
*130 net137
*131 net138
*132 net139
*133 net140
*134 net141
*135 net142
*136 net143
*137 net144
*138 net145
*139 net146
*140 la_data_out[10]
*141 net147
*142 net148
*143 net149
*144 net150
*145 net151
*146 net152
*147 net153
*148 net154
*149 net155
*150 net156
*151 la_data_out[11]
*152 net157
*153 net158
*154 net159
*155 net160
*156 net161
*157 net162
*158 net163
*159 net164
*160 la_data_out[12]
*161 la_data_out[13]
*162 la_data_out[14]
*163 la_data_out[15]
*164 la_data_out[16]
*165 la_data_out[17]
*166 la_data_out[18]
*167 la_data_out[19]
*168 la_data_out[1]
*169 la_data_out[20]
*170 la_data_out[21]
*171 la_data_out[22]
*172 la_data_out[23]
*173 la_data_out[24]
*174 la_data_out[25]
*175 la_data_out[26]
*176 net64
*177 net65
*178 net66
*179 la_data_out[2]
*180 net67
*181 net68
*182 net69
*183 net70
*184 net71
*185 net72
*186 net73
*187 net74
*188 net75
*189 net76
*190 la_data_out[3]
*191 net77
*192 net78
*193 net79
*194 net80
*195 net81
*196 net82
*197 net83
*198 net84
*199 net85
*200 net86
*201 la_data_out[4]
*202 net87
*203 net88
*204 net89
*205 net90
*206 net91
*207 net92
*208 net93
*209 net94
*210 net95
*211 net96
*212 la_data_out[5]
*213 net97
*214 net98
*215 net99
*216 net100
*217 net101
*218 net102
*219 net103
*220 net104
*221 net105
*222 net106
*223 la_data_out[6]
*224 net107
*225 net108
*226 net109
*227 net110
*228 net111
*229 net112
*230 net113
*231 net114
*232 net115
*233 net116
*234 la_data_out[7]
*235 net117
*236 net118
*237 net119
*238 net120
*239 net121
*240 net122
*241 net123
*242 net124
*243 net125
*244 net126
*245 la_data_out[8]
*246 net127
*247 net128
*248 net129
*249 net130
*250 net131
*251 net132
*252 net133
*253 net134
*254 net135
*255 net136
*256 la_data_out[9]
*259 _000_
*260 _001_
*261 _002_
*262 _003_
*263 _004_
*264 _005_
*265 _006_
*266 _007_
*267 _008_
*268 _009_
*269 _010_
*270 _011_
*271 _012_
*272 _013_
*273 _014_
*274 _015_
*275 _016_
*276 _017_
*277 _018_
*278 _019_
*279 _020_
*280 _021_
*281 _022_
*282 _023_
*283 _024_
*284 _025_
*285 _026_
*286 _027_
*287 _028_
*288 _029_
*289 _030_
*290 _031_
*291 _032_
*292 _033_
*293 _034_
*294 _035_
*295 _036_
*296 _037_
*297 _038_
*298 _039_
*299 _040_
*300 _041_
*301 _042_
*302 _043_
*303 _044_
*304 _045_
*305 _046_
*306 _047_
*307 _048_
*308 _049_
*309 _050_
*310 _051_
*311 _052_
*312 _053_
*313 _054_
*314 _055_
*315 _056_
*316 _057_
*317 _058_
*318 _059_
*319 _060_
*320 _061_
*321 _062_
*322 _063_
*323 _064_
*324 _065_
*325 _066_
*326 _067_
*327 _068_
*328 _069_
*329 _070_
*330 _071_
*331 _072_
*332 _073_
*333 _074_
*334 _075_
*335 _076_
*336 _077_
*337 _078_
*338 _079_
*339 _080_
*340 _081_
*341 _082_
*342 _083_
*343 _084_
*344 _085_
*345 _086_
*346 _087_
*347 _088_
*348 _089_
*349 _090_
*350 _091_
*351 _092_
*352 _093_
*353 _094_
*354 _095_
*355 _096_
*356 _097_
*357 _098_
*358 _099_
*359 _100_
*360 _101_
*361 _102_
*362 _103_
*363 _104_
*364 _105_
*365 _106_
*366 _107_
*367 _108_
*368 _109_
*369 _110_
*370 _111_
*371 _112_
*372 _113_
*373 _114_
*374 _115_
*375 _116_
*376 _117_
*377 _118_
*378 _119_
*379 _120_
*380 _121_
*381 _122_
*382 _123_
*383 _124_
*384 _125_
*385 _126_
*386 _127_
*387 _128_
*388 _129_
*389 _130_
*390 _131_
*391 _132_
*392 _133_
*393 _134_
*394 _135_
*395 _136_
*396 _137_
*397 _138_
*398 _139_
*399 _140_
*400 _141_
*401 _142_
*402 _143_
*403 _144_
*404 _145_
*405 _146_
*406 _147_
*407 _148_
*408 _149_
*409 _150_
*410 _151_
*411 _152_
*412 _153_
*413 _154_
*414 _155_
*415 _156_
*416 _157_
*417 _158_
*418 _159_
*419 _160_
*420 _161_
*421 _162_
*422 _163_
*423 _164_
*424 _165_
*425 _166_
*426 _167_
*427 _168_
*428 _169_
*429 _170_
*430 _171_
*431 _172_
*432 _173_
*433 _174_
*434 _175_
*435 _176_
*436 _177_
*437 _178_
*438 _179_
*439 _180_
*440 _181_
*441 _182_
*442 _183_
*443 _184_
*444 _185_
*445 _186_
*446 _187_
*447 _188_
*448 _189_
*449 _190_
*450 _191_
*451 _192_
*452 _193_
*453 _194_
*454 _195_
*455 net1
*456 net10
*457 net11
*458 net12
*459 net13
*460 net14
*461 net15
*462 net16
*463 net17
*464 net18
*465 net19
*466 net2
*467 net20
*468 net21
*469 net22
*470 net23
*471 net24
*472 net25
*473 net26
*474 net27
*475 net28
*476 net29
*477 net3
*478 net30
*479 net31
*480 net32
*481 net33
*482 net34
*483 net35
*484 net36
*485 net37
*486 net38
*487 net39
*488 net4
*489 net40
*490 net41
*491 net42
*492 net43
*493 net44
*494 net45
*495 net46
*496 net47
*497 net48
*498 net49
*499 net5
*500 net50
*501 net51
*502 net52
*503 net53
*504 net54
*505 net55
*506 net56
*507 net57
*508 net58
*509 net59
*510 net6
*511 net60
*512 net61
*513 net62
*514 net63
*515 net7
*516 net8
*517 net9
*518 ANTENNA__196__A
*519 ANTENNA__198__A
*520 ANTENNA__198__B_N
*521 ANTENNA__211__A
*522 ANTENNA__212__A
*523 ANTENNA__243__A1
*524 ANTENNA__243__A2
*525 ANTENNA__246__A
*526 ANTENNA__247__A
*527 ANTENNA__261__A
*528 ANTENNA__261__B_N
*529 ANTENNA__268__A
*530 ANTENNA__309__A1
*531 ANTENNA__311__A
*532 ANTENNA__320__A
*533 ANTENNA__321__A
*534 ANTENNA__322__A
*535 ANTENNA__327__A
*536 ANTENNA__342__A
*537 ANTENNA__354__A
*538 ANTENNA__365__A
*539 ANTENNA__370__A
*540 ANTENNA__396__A
*541 ANTENNA__396__B
*542 ANTENNA__397__A
*543 ANTENNA__397__B
*544 ANTENNA__398__A2
*545 ANTENNA__399__A2
*546 ANTENNA__414__B1
*547 ANTENNA_input10_A
*548 ANTENNA_input11_A
*549 ANTENNA_input12_A
*550 ANTENNA_input13_A
*551 ANTENNA_input14_A
*552 ANTENNA_input15_A
*553 ANTENNA_input16_A
*554 ANTENNA_input17_A
*555 ANTENNA_input18_A
*556 ANTENNA_input19_A
*557 ANTENNA_input1_A
*558 ANTENNA_input20_A
*559 ANTENNA_input21_A
*560 ANTENNA_input22_A
*561 ANTENNA_input23_A
*562 ANTENNA_input24_A
*563 ANTENNA_input25_A
*564 ANTENNA_input26_A
*565 ANTENNA_input27_A
*566 ANTENNA_input28_A
*567 ANTENNA_input29_A
*568 ANTENNA_input2_A
*569 ANTENNA_input30_A
*570 ANTENNA_input31_A
*571 ANTENNA_input32_A
*572 ANTENNA_input33_A
*573 ANTENNA_input34_A
*574 ANTENNA_input35_A
*575 ANTENNA_input36_A
*576 ANTENNA_input3_A
*577 ANTENNA_input4_A
*578 ANTENNA_input5_A
*579 ANTENNA_input6_A
*580 ANTENNA_input7_A
*581 ANTENNA_input8_A
*582 ANTENNA_input9_A
*583 ANTENNA_output37_A
*584 ANTENNA_output48_A
*585 ANTENNA_output56_A
*586 ANTENNA_output57_A
*587 FILLER_0_1012
*588 FILLER_0_1027
*589 FILLER_0_103
*590 FILLER_0_1035
*591 FILLER_0_1037
*592 FILLER_0_1042
*593 FILLER_0_1057
*594 FILLER_0_1063
*595 FILLER_0_1065
*596 FILLER_0_1072
*597 FILLER_0_1084
*598 FILLER_0_1088
*599 FILLER_0_1093
*600 FILLER_0_1099
*601 FILLER_0_11
*602 FILLER_0_1103
*603 FILLER_0_111
*604 FILLER_0_1115
*605 FILLER_0_1119
*606 FILLER_0_1124
*607 FILLER_0_113
*608 FILLER_0_1130
*609 FILLER_0_1134
*610 FILLER_0_1146
*611 FILLER_0_1152
*612 FILLER_0_1160
*613 FILLER_0_1164
*614 FILLER_0_1180
*615 FILLER_0_1195
*616 FILLER_0_1203
*617 FILLER_0_1205
*618 FILLER_0_1210
*619 FILLER_0_1225
*620 FILLER_0_1231
*621 FILLER_0_1233
*622 FILLER_0_1237
*623 FILLER_0_124
*624 FILLER_0_1241
*625 FILLER_0_1256
*626 FILLER_0_1261
*627 FILLER_0_1267
*628 FILLER_0_1271
*629 FILLER_0_1283
*630 FILLER_0_1287
*631 FILLER_0_1292
*632 FILLER_0_1298
*633 FILLER_0_130
*634 FILLER_0_1302
*635 FILLER_0_1314
*636 FILLER_0_1320
*637 FILLER_0_1328
*638 FILLER_0_1332
*639 FILLER_0_1348
*640 FILLER_0_136
*641 FILLER_0_1363
*642 FILLER_0_1371
*643 FILLER_0_1373
*644 FILLER_0_1378
*645 FILLER_0_1393
*646 FILLER_0_1399
*647 FILLER_0_1401
*648 FILLER_0_1405
*649 FILLER_0_1409
*650 FILLER_0_141
*651 FILLER_0_1424
*652 FILLER_0_1429
*653 FILLER_0_1435
*654 FILLER_0_1439
*655 FILLER_0_1451
*656 FILLER_0_1455
*657 FILLER_0_1460
*658 FILLER_0_1466
*659 FILLER_0_1470
*660 FILLER_0_1482
*661 FILLER_0_1488
*662 FILLER_0_1496
*663 FILLER_0_1500
*664 FILLER_0_1516
*665 FILLER_0_1531
*666 FILLER_0_1539
*667 FILLER_0_154
*668 FILLER_0_1541
*669 FILLER_0_1546
*670 FILLER_0_1558
*671 FILLER_0_1562
*672 FILLER_0_1569
*673 FILLER_0_1573
*674 FILLER_0_1577
*675 FILLER_0_1592
*676 FILLER_0_1597
*677 FILLER_0_1603
*678 FILLER_0_1607
*679 FILLER_0_1619
*680 FILLER_0_1623
*681 FILLER_0_1628
*682 FILLER_0_1634
*683 FILLER_0_1638
*684 FILLER_0_164
*685 FILLER_0_1650
*686 FILLER_0_1656
*687 FILLER_0_1664
*688 FILLER_0_1669
*689 FILLER_0_1677
*690 FILLER_0_1684
*691 FILLER_0_1699
*692 FILLER_0_1707
*693 FILLER_0_1709
*694 FILLER_0_1715
*695 FILLER_0_1730
*696 FILLER_0_1737
*697 FILLER_0_1741
*698 FILLER_0_1745
*699 FILLER_0_176
*700 FILLER_0_1760
*701 FILLER_0_1765
*702 FILLER_0_1776
*703 FILLER_0_1788
*704 FILLER_0_1796
*705 FILLER_0_1802
*706 FILLER_0_1806
*707 FILLER_0_1818
*708 FILLER_0_1824
*709 FILLER_0_1832
*710 FILLER_0_1837
*711 FILLER_0_1845
*712 FILLER_0_1852
*713 FILLER_0_1867
*714 FILLER_0_1875
*715 FILLER_0_1877
*716 FILLER_0_1883
*717 FILLER_0_1898
*718 FILLER_0_19
*719 FILLER_0_190
*720 FILLER_0_1905
*721 FILLER_0_1909
*722 FILLER_0_1913
*723 FILLER_0_1921
*724 FILLER_0_1925
*725 FILLER_0_207
*726 FILLER_0_218
*727 FILLER_0_235
*728 FILLER_0_246
*729 FILLER_0_253
*730 FILLER_0_264
*731 FILLER_0_27
*732 FILLER_0_276
*733 FILLER_0_281
*734 FILLER_0_29
*735 FILLER_0_293
*736 FILLER_0_3
*737 FILLER_0_304
*738 FILLER_0_316
*739 FILLER_0_326
*740 FILLER_0_332
*741 FILLER_0_339
*742 FILLER_0_353
*743 FILLER_0_360
*744 FILLER_0_369
*745 FILLER_0_37
*746 FILLER_0_373
*747 FILLER_0_384
*748 FILLER_0_393
*749 FILLER_0_400
*750 FILLER_0_408
*751 FILLER_0_415
*752 FILLER_0_419
*753 FILLER_0_421
*754 FILLER_0_429
*755 FILLER_0_439
*756 FILLER_0_447
*757 FILLER_0_449
*758 FILLER_0_45
*759 FILLER_0_457
*760 FILLER_0_469
*761 FILLER_0_475
*762 FILLER_0_477
*763 FILLER_0_485
*764 FILLER_0_492
*765 FILLER_0_500
*766 FILLER_0_507
*767 FILLER_0_51
*768 FILLER_0_515
*769 FILLER_0_522
*770 FILLER_0_528
*771 FILLER_0_537
*772 FILLER_0_544
*773 FILLER_0_55
*774 FILLER_0_553
*775 FILLER_0_559
*776 FILLER_0_561
*777 FILLER_0_568
*778 FILLER_0_57
*779 FILLER_0_583
*780 FILLER_0_587
*781 FILLER_0_589
*782 FILLER_0_598
*783 FILLER_0_610
*784 FILLER_0_620
*785 FILLER_0_629
*786 FILLER_0_641
*787 FILLER_0_648
*788 FILLER_0_65
*789 FILLER_0_656
*790 FILLER_0_660
*791 FILLER_0_676
*792 FILLER_0_684
*793 FILLER_0_690
*794 FILLER_0_698
*795 FILLER_0_701
*796 FILLER_0_705
*797 FILLER_0_717
*798 FILLER_0_721
*799 FILLER_0_727
*800 FILLER_0_729
*801 FILLER_0_73
*802 FILLER_0_736
*803 FILLER_0_751
*804 FILLER_0_755
*805 FILLER_0_757
*806 FILLER_0_763
*807 FILLER_0_767
*808 FILLER_0_779
*809 FILLER_0_783
*810 FILLER_0_788
*811 FILLER_0_797
*812 FILLER_0_80
*813 FILLER_0_809
*814 FILLER_0_816
*815 FILLER_0_824
*816 FILLER_0_828
*817 FILLER_0_844
*818 FILLER_0_852
*819 FILLER_0_858
*820 FILLER_0_866
*821 FILLER_0_869
*822 FILLER_0_874
*823 FILLER_0_889
*824 FILLER_0_895
*825 FILLER_0_897
*826 FILLER_0_904
*827 FILLER_0_919
*828 FILLER_0_923
*829 FILLER_0_925
*830 FILLER_0_931
*831 FILLER_0_935
*832 FILLER_0_947
*833 FILLER_0_95
*834 FILLER_0_951
*835 FILLER_0_956
*836 FILLER_0_965
*837 FILLER_0_977
*838 FILLER_0_984
*839 FILLER_0_992
*840 FILLER_0_996
*841 FILLER_100_1005
*842 FILLER_100_1017
*843 FILLER_100_1029
*844 FILLER_100_1035
*845 FILLER_100_1037
*846 FILLER_100_1049
*847 FILLER_100_1061
*848 FILLER_100_1073
*849 FILLER_100_1085
*850 FILLER_100_109
*851 FILLER_100_1091
*852 FILLER_100_1093
*853 FILLER_100_1105
*854 FILLER_100_1117
*855 FILLER_100_1129
*856 FILLER_100_1141
*857 FILLER_100_1147
*858 FILLER_100_1149
*859 FILLER_100_1161
*860 FILLER_100_1173
*861 FILLER_100_1185
*862 FILLER_100_1197
*863 FILLER_100_1203
*864 FILLER_100_1205
*865 FILLER_100_121
*866 FILLER_100_1217
*867 FILLER_100_1229
*868 FILLER_100_1241
*869 FILLER_100_1253
*870 FILLER_100_1259
*871 FILLER_100_1261
*872 FILLER_100_1273
*873 FILLER_100_1285
*874 FILLER_100_1297
*875 FILLER_100_1309
*876 FILLER_100_1315
*877 FILLER_100_1317
*878 FILLER_100_1329
*879 FILLER_100_133
*880 FILLER_100_1341
*881 FILLER_100_1353
*882 FILLER_100_1365
*883 FILLER_100_1371
*884 FILLER_100_1373
*885 FILLER_100_1385
*886 FILLER_100_139
*887 FILLER_100_1397
*888 FILLER_100_1409
*889 FILLER_100_141
*890 FILLER_100_1421
*891 FILLER_100_1427
*892 FILLER_100_1429
*893 FILLER_100_1441
*894 FILLER_100_1453
*895 FILLER_100_1465
*896 FILLER_100_1477
*897 FILLER_100_1483
*898 FILLER_100_1485
*899 FILLER_100_1497
*900 FILLER_100_15
*901 FILLER_100_1509
*902 FILLER_100_1521
*903 FILLER_100_153
*904 FILLER_100_1533
*905 FILLER_100_1539
*906 FILLER_100_1541
*907 FILLER_100_1553
*908 FILLER_100_1565
*909 FILLER_100_1577
*910 FILLER_100_1589
*911 FILLER_100_1595
*912 FILLER_100_1597
*913 FILLER_100_1609
*914 FILLER_100_1621
*915 FILLER_100_1633
*916 FILLER_100_1645
*917 FILLER_100_165
*918 FILLER_100_1651
*919 FILLER_100_1653
*920 FILLER_100_1665
*921 FILLER_100_1677
*922 FILLER_100_1689
*923 FILLER_100_1701
*924 FILLER_100_1707
*925 FILLER_100_1709
*926 FILLER_100_1721
*927 FILLER_100_1733
*928 FILLER_100_1745
*929 FILLER_100_1757
*930 FILLER_100_1763
*931 FILLER_100_1765
*932 FILLER_100_177
*933 FILLER_100_1777
*934 FILLER_100_1789
*935 FILLER_100_1801
*936 FILLER_100_1813
*937 FILLER_100_1819
*938 FILLER_100_1821
*939 FILLER_100_1833
*940 FILLER_100_1845
*941 FILLER_100_1857
*942 FILLER_100_1869
*943 FILLER_100_1875
*944 FILLER_100_1877
*945 FILLER_100_1889
*946 FILLER_100_189
*947 FILLER_100_1901
*948 FILLER_100_1913
*949 FILLER_100_1925
*950 FILLER_100_195
*951 FILLER_100_197
*952 FILLER_100_209
*953 FILLER_100_221
*954 FILLER_100_233
*955 FILLER_100_245
*956 FILLER_100_251
*957 FILLER_100_253
*958 FILLER_100_265
*959 FILLER_100_27
*960 FILLER_100_277
*961 FILLER_100_289
*962 FILLER_100_29
*963 FILLER_100_3
*964 FILLER_100_301
*965 FILLER_100_307
*966 FILLER_100_309
*967 FILLER_100_321
*968 FILLER_100_333
*969 FILLER_100_345
*970 FILLER_100_357
*971 FILLER_100_363
*972 FILLER_100_365
*973 FILLER_100_377
*974 FILLER_100_389
*975 FILLER_100_401
*976 FILLER_100_41
*977 FILLER_100_413
*978 FILLER_100_419
*979 FILLER_100_421
*980 FILLER_100_433
*981 FILLER_100_445
*982 FILLER_100_457
*983 FILLER_100_469
*984 FILLER_100_475
*985 FILLER_100_477
*986 FILLER_100_489
*987 FILLER_100_501
*988 FILLER_100_513
*989 FILLER_100_525
*990 FILLER_100_53
*991 FILLER_100_531
*992 FILLER_100_533
*993 FILLER_100_545
*994 FILLER_100_557
*995 FILLER_100_569
*996 FILLER_100_581
*997 FILLER_100_587
*998 FILLER_100_589
*999 FILLER_100_601
*1000 FILLER_100_613
*1001 FILLER_100_625
*1002 FILLER_100_637
*1003 FILLER_100_643
*1004 FILLER_100_645
*1005 FILLER_100_65
*1006 FILLER_100_657
*1007 FILLER_100_669
*1008 FILLER_100_681
*1009 FILLER_100_693
*1010 FILLER_100_699
*1011 FILLER_100_701
*1012 FILLER_100_713
*1013 FILLER_100_725
*1014 FILLER_100_737
*1015 FILLER_100_749
*1016 FILLER_100_755
*1017 FILLER_100_757
*1018 FILLER_100_769
*1019 FILLER_100_77
*1020 FILLER_100_781
*1021 FILLER_100_793
*1022 FILLER_100_805
*1023 FILLER_100_811
*1024 FILLER_100_813
*1025 FILLER_100_825
*1026 FILLER_100_83
*1027 FILLER_100_837
*1028 FILLER_100_849
*1029 FILLER_100_85
*1030 FILLER_100_861
*1031 FILLER_100_867
*1032 FILLER_100_869
*1033 FILLER_100_881
*1034 FILLER_100_893
*1035 FILLER_100_905
*1036 FILLER_100_917
*1037 FILLER_100_923
*1038 FILLER_100_925
*1039 FILLER_100_937
*1040 FILLER_100_949
*1041 FILLER_100_961
*1042 FILLER_100_97
*1043 FILLER_100_973
*1044 FILLER_100_979
*1045 FILLER_100_981
*1046 FILLER_100_993
*1047 FILLER_101_1001
*1048 FILLER_101_1007
*1049 FILLER_101_1009
*1050 FILLER_101_1021
*1051 FILLER_101_1033
*1052 FILLER_101_1045
*1053 FILLER_101_105
*1054 FILLER_101_1057
*1055 FILLER_101_1063
*1056 FILLER_101_1065
*1057 FILLER_101_1077
*1058 FILLER_101_1089
*1059 FILLER_101_1101
*1060 FILLER_101_111
*1061 FILLER_101_1113
*1062 FILLER_101_1119
*1063 FILLER_101_1121
*1064 FILLER_101_113
*1065 FILLER_101_1133
*1066 FILLER_101_1145
*1067 FILLER_101_1157
*1068 FILLER_101_1169
*1069 FILLER_101_1175
*1070 FILLER_101_1177
*1071 FILLER_101_1189
*1072 FILLER_101_1201
*1073 FILLER_101_1213
*1074 FILLER_101_1225
*1075 FILLER_101_1231
*1076 FILLER_101_1233
*1077 FILLER_101_1245
*1078 FILLER_101_125
*1079 FILLER_101_1257
*1080 FILLER_101_1269
*1081 FILLER_101_1281
*1082 FILLER_101_1287
*1083 FILLER_101_1289
*1084 FILLER_101_1301
*1085 FILLER_101_1313
*1086 FILLER_101_1325
*1087 FILLER_101_1337
*1088 FILLER_101_1343
*1089 FILLER_101_1345
*1090 FILLER_101_1357
*1091 FILLER_101_1369
*1092 FILLER_101_137
*1093 FILLER_101_1381
*1094 FILLER_101_1393
*1095 FILLER_101_1399
*1096 FILLER_101_1401
*1097 FILLER_101_1413
*1098 FILLER_101_1425
*1099 FILLER_101_1437
*1100 FILLER_101_1449
*1101 FILLER_101_1455
*1102 FILLER_101_1457
*1103 FILLER_101_1469
*1104 FILLER_101_1481
*1105 FILLER_101_149
*1106 FILLER_101_1493
*1107 FILLER_101_15
*1108 FILLER_101_1505
*1109 FILLER_101_1511
*1110 FILLER_101_1513
*1111 FILLER_101_1525
*1112 FILLER_101_1537
*1113 FILLER_101_1549
*1114 FILLER_101_1561
*1115 FILLER_101_1567
*1116 FILLER_101_1569
*1117 FILLER_101_1581
*1118 FILLER_101_1593
*1119 FILLER_101_1605
*1120 FILLER_101_161
*1121 FILLER_101_1617
*1122 FILLER_101_1623
*1123 FILLER_101_1625
*1124 FILLER_101_1637
*1125 FILLER_101_1649
*1126 FILLER_101_1661
*1127 FILLER_101_167
*1128 FILLER_101_1673
*1129 FILLER_101_1679
*1130 FILLER_101_1681
*1131 FILLER_101_169
*1132 FILLER_101_1693
*1133 FILLER_101_1705
*1134 FILLER_101_1717
*1135 FILLER_101_1729
*1136 FILLER_101_1735
*1137 FILLER_101_1737
*1138 FILLER_101_1749
*1139 FILLER_101_1761
*1140 FILLER_101_1773
*1141 FILLER_101_1785
*1142 FILLER_101_1791
*1143 FILLER_101_1793
*1144 FILLER_101_1805
*1145 FILLER_101_181
*1146 FILLER_101_1817
*1147 FILLER_101_1829
*1148 FILLER_101_1841
*1149 FILLER_101_1847
*1150 FILLER_101_1849
*1151 FILLER_101_1861
*1152 FILLER_101_1873
*1153 FILLER_101_1885
*1154 FILLER_101_1897
*1155 FILLER_101_1903
*1156 FILLER_101_1905
*1157 FILLER_101_1917
*1158 FILLER_101_193
*1159 FILLER_101_205
*1160 FILLER_101_217
*1161 FILLER_101_223
*1162 FILLER_101_225
*1163 FILLER_101_237
*1164 FILLER_101_249
*1165 FILLER_101_261
*1166 FILLER_101_27
*1167 FILLER_101_273
*1168 FILLER_101_279
*1169 FILLER_101_281
*1170 FILLER_101_293
*1171 FILLER_101_3
*1172 FILLER_101_305
*1173 FILLER_101_317
*1174 FILLER_101_329
*1175 FILLER_101_335
*1176 FILLER_101_337
*1177 FILLER_101_349
*1178 FILLER_101_361
*1179 FILLER_101_373
*1180 FILLER_101_385
*1181 FILLER_101_39
*1182 FILLER_101_391
*1183 FILLER_101_393
*1184 FILLER_101_405
*1185 FILLER_101_417
*1186 FILLER_101_429
*1187 FILLER_101_441
*1188 FILLER_101_447
*1189 FILLER_101_449
*1190 FILLER_101_461
*1191 FILLER_101_473
*1192 FILLER_101_485
*1193 FILLER_101_497
*1194 FILLER_101_503
*1195 FILLER_101_505
*1196 FILLER_101_51
*1197 FILLER_101_517
*1198 FILLER_101_529
*1199 FILLER_101_541
*1200 FILLER_101_55
*1201 FILLER_101_553
*1202 FILLER_101_559
*1203 FILLER_101_561
*1204 FILLER_101_57
*1205 FILLER_101_573
*1206 FILLER_101_585
*1207 FILLER_101_597
*1208 FILLER_101_609
*1209 FILLER_101_615
*1210 FILLER_101_617
*1211 FILLER_101_629
*1212 FILLER_101_641
*1213 FILLER_101_653
*1214 FILLER_101_665
*1215 FILLER_101_671
*1216 FILLER_101_673
*1217 FILLER_101_685
*1218 FILLER_101_69
*1219 FILLER_101_697
*1220 FILLER_101_709
*1221 FILLER_101_721
*1222 FILLER_101_727
*1223 FILLER_101_729
*1224 FILLER_101_741
*1225 FILLER_101_753
*1226 FILLER_101_765
*1227 FILLER_101_777
*1228 FILLER_101_783
*1229 FILLER_101_785
*1230 FILLER_101_797
*1231 FILLER_101_809
*1232 FILLER_101_81
*1233 FILLER_101_821
*1234 FILLER_101_833
*1235 FILLER_101_839
*1236 FILLER_101_841
*1237 FILLER_101_853
*1238 FILLER_101_865
*1239 FILLER_101_877
*1240 FILLER_101_889
*1241 FILLER_101_895
*1242 FILLER_101_897
*1243 FILLER_101_909
*1244 FILLER_101_921
*1245 FILLER_101_93
*1246 FILLER_101_933
*1247 FILLER_101_945
*1248 FILLER_101_951
*1249 FILLER_101_953
*1250 FILLER_101_965
*1251 FILLER_101_977
*1252 FILLER_101_989
*1253 FILLER_102_1005
*1254 FILLER_102_1017
*1255 FILLER_102_1029
*1256 FILLER_102_1035
*1257 FILLER_102_1037
*1258 FILLER_102_1049
*1259 FILLER_102_1061
*1260 FILLER_102_1073
*1261 FILLER_102_1085
*1262 FILLER_102_109
*1263 FILLER_102_1091
*1264 FILLER_102_1093
*1265 FILLER_102_1105
*1266 FILLER_102_1117
*1267 FILLER_102_1129
*1268 FILLER_102_1141
*1269 FILLER_102_1147
*1270 FILLER_102_1149
*1271 FILLER_102_1161
*1272 FILLER_102_1173
*1273 FILLER_102_1185
*1274 FILLER_102_1197
*1275 FILLER_102_1203
*1276 FILLER_102_1205
*1277 FILLER_102_121
*1278 FILLER_102_1217
*1279 FILLER_102_1229
*1280 FILLER_102_1241
*1281 FILLER_102_1253
*1282 FILLER_102_1259
*1283 FILLER_102_1261
*1284 FILLER_102_1273
*1285 FILLER_102_1285
*1286 FILLER_102_1297
*1287 FILLER_102_1309
*1288 FILLER_102_1315
*1289 FILLER_102_1317
*1290 FILLER_102_1329
*1291 FILLER_102_133
*1292 FILLER_102_1341
*1293 FILLER_102_1353
*1294 FILLER_102_1365
*1295 FILLER_102_1371
*1296 FILLER_102_1373
*1297 FILLER_102_1385
*1298 FILLER_102_139
*1299 FILLER_102_1397
*1300 FILLER_102_1409
*1301 FILLER_102_141
*1302 FILLER_102_1421
*1303 FILLER_102_1427
*1304 FILLER_102_1429
*1305 FILLER_102_1441
*1306 FILLER_102_1453
*1307 FILLER_102_1465
*1308 FILLER_102_1477
*1309 FILLER_102_1483
*1310 FILLER_102_1485
*1311 FILLER_102_1497
*1312 FILLER_102_15
*1313 FILLER_102_1509
*1314 FILLER_102_1521
*1315 FILLER_102_153
*1316 FILLER_102_1533
*1317 FILLER_102_1539
*1318 FILLER_102_1541
*1319 FILLER_102_1553
*1320 FILLER_102_1565
*1321 FILLER_102_1577
*1322 FILLER_102_1589
*1323 FILLER_102_1595
*1324 FILLER_102_1597
*1325 FILLER_102_1609
*1326 FILLER_102_1621
*1327 FILLER_102_1633
*1328 FILLER_102_1645
*1329 FILLER_102_165
*1330 FILLER_102_1651
*1331 FILLER_102_1653
*1332 FILLER_102_1665
*1333 FILLER_102_1677
*1334 FILLER_102_1689
*1335 FILLER_102_1701
*1336 FILLER_102_1707
*1337 FILLER_102_1709
*1338 FILLER_102_1721
*1339 FILLER_102_1733
*1340 FILLER_102_1745
*1341 FILLER_102_1757
*1342 FILLER_102_1763
*1343 FILLER_102_1765
*1344 FILLER_102_177
*1345 FILLER_102_1777
*1346 FILLER_102_1789
*1347 FILLER_102_1801
*1348 FILLER_102_1813
*1349 FILLER_102_1819
*1350 FILLER_102_1821
*1351 FILLER_102_1833
*1352 FILLER_102_1845
*1353 FILLER_102_1857
*1354 FILLER_102_1869
*1355 FILLER_102_1875
*1356 FILLER_102_1877
*1357 FILLER_102_1889
*1358 FILLER_102_189
*1359 FILLER_102_1901
*1360 FILLER_102_1913
*1361 FILLER_102_1925
*1362 FILLER_102_195
*1363 FILLER_102_197
*1364 FILLER_102_209
*1365 FILLER_102_221
*1366 FILLER_102_233
*1367 FILLER_102_245
*1368 FILLER_102_251
*1369 FILLER_102_253
*1370 FILLER_102_265
*1371 FILLER_102_27
*1372 FILLER_102_277
*1373 FILLER_102_289
*1374 FILLER_102_29
*1375 FILLER_102_3
*1376 FILLER_102_301
*1377 FILLER_102_307
*1378 FILLER_102_309
*1379 FILLER_102_321
*1380 FILLER_102_333
*1381 FILLER_102_345
*1382 FILLER_102_357
*1383 FILLER_102_363
*1384 FILLER_102_365
*1385 FILLER_102_377
*1386 FILLER_102_389
*1387 FILLER_102_401
*1388 FILLER_102_41
*1389 FILLER_102_413
*1390 FILLER_102_419
*1391 FILLER_102_421
*1392 FILLER_102_433
*1393 FILLER_102_445
*1394 FILLER_102_457
*1395 FILLER_102_469
*1396 FILLER_102_475
*1397 FILLER_102_477
*1398 FILLER_102_489
*1399 FILLER_102_501
*1400 FILLER_102_513
*1401 FILLER_102_525
*1402 FILLER_102_53
*1403 FILLER_102_531
*1404 FILLER_102_533
*1405 FILLER_102_545
*1406 FILLER_102_557
*1407 FILLER_102_569
*1408 FILLER_102_581
*1409 FILLER_102_587
*1410 FILLER_102_589
*1411 FILLER_102_601
*1412 FILLER_102_613
*1413 FILLER_102_625
*1414 FILLER_102_637
*1415 FILLER_102_643
*1416 FILLER_102_645
*1417 FILLER_102_65
*1418 FILLER_102_657
*1419 FILLER_102_669
*1420 FILLER_102_681
*1421 FILLER_102_693
*1422 FILLER_102_699
*1423 FILLER_102_701
*1424 FILLER_102_713
*1425 FILLER_102_725
*1426 FILLER_102_737
*1427 FILLER_102_749
*1428 FILLER_102_755
*1429 FILLER_102_757
*1430 FILLER_102_769
*1431 FILLER_102_77
*1432 FILLER_102_781
*1433 FILLER_102_793
*1434 FILLER_102_805
*1435 FILLER_102_811
*1436 FILLER_102_813
*1437 FILLER_102_825
*1438 FILLER_102_83
*1439 FILLER_102_837
*1440 FILLER_102_849
*1441 FILLER_102_85
*1442 FILLER_102_861
*1443 FILLER_102_867
*1444 FILLER_102_869
*1445 FILLER_102_881
*1446 FILLER_102_893
*1447 FILLER_102_905
*1448 FILLER_102_917
*1449 FILLER_102_923
*1450 FILLER_102_925
*1451 FILLER_102_937
*1452 FILLER_102_949
*1453 FILLER_102_961
*1454 FILLER_102_97
*1455 FILLER_102_973
*1456 FILLER_102_979
*1457 FILLER_102_981
*1458 FILLER_102_993
*1459 FILLER_103_1001
*1460 FILLER_103_1007
*1461 FILLER_103_1009
*1462 FILLER_103_1021
*1463 FILLER_103_1033
*1464 FILLER_103_1045
*1465 FILLER_103_105
*1466 FILLER_103_1057
*1467 FILLER_103_1063
*1468 FILLER_103_1065
*1469 FILLER_103_1077
*1470 FILLER_103_1089
*1471 FILLER_103_1101
*1472 FILLER_103_111
*1473 FILLER_103_1113
*1474 FILLER_103_1119
*1475 FILLER_103_1121
*1476 FILLER_103_113
*1477 FILLER_103_1133
*1478 FILLER_103_1145
*1479 FILLER_103_1157
*1480 FILLER_103_1169
*1481 FILLER_103_1175
*1482 FILLER_103_1177
*1483 FILLER_103_1189
*1484 FILLER_103_1201
*1485 FILLER_103_1213
*1486 FILLER_103_1225
*1487 FILLER_103_1231
*1488 FILLER_103_1233
*1489 FILLER_103_1245
*1490 FILLER_103_125
*1491 FILLER_103_1257
*1492 FILLER_103_1269
*1493 FILLER_103_1281
*1494 FILLER_103_1287
*1495 FILLER_103_1289
*1496 FILLER_103_1301
*1497 FILLER_103_1313
*1498 FILLER_103_1325
*1499 FILLER_103_1337
*1500 FILLER_103_1343
*1501 FILLER_103_1345
*1502 FILLER_103_1357
*1503 FILLER_103_1369
*1504 FILLER_103_137
*1505 FILLER_103_1381
*1506 FILLER_103_1393
*1507 FILLER_103_1399
*1508 FILLER_103_1401
*1509 FILLER_103_1413
*1510 FILLER_103_1425
*1511 FILLER_103_1437
*1512 FILLER_103_1449
*1513 FILLER_103_1455
*1514 FILLER_103_1457
*1515 FILLER_103_1469
*1516 FILLER_103_1481
*1517 FILLER_103_149
*1518 FILLER_103_1493
*1519 FILLER_103_15
*1520 FILLER_103_1505
*1521 FILLER_103_1511
*1522 FILLER_103_1513
*1523 FILLER_103_1525
*1524 FILLER_103_1537
*1525 FILLER_103_1549
*1526 FILLER_103_1561
*1527 FILLER_103_1567
*1528 FILLER_103_1569
*1529 FILLER_103_1581
*1530 FILLER_103_1593
*1531 FILLER_103_1605
*1532 FILLER_103_161
*1533 FILLER_103_1617
*1534 FILLER_103_1623
*1535 FILLER_103_1625
*1536 FILLER_103_1637
*1537 FILLER_103_1649
*1538 FILLER_103_1661
*1539 FILLER_103_167
*1540 FILLER_103_1673
*1541 FILLER_103_1679
*1542 FILLER_103_1681
*1543 FILLER_103_169
*1544 FILLER_103_1693
*1545 FILLER_103_1705
*1546 FILLER_103_1717
*1547 FILLER_103_1729
*1548 FILLER_103_1735
*1549 FILLER_103_1737
*1550 FILLER_103_1749
*1551 FILLER_103_1761
*1552 FILLER_103_1773
*1553 FILLER_103_1785
*1554 FILLER_103_1791
*1555 FILLER_103_1793
*1556 FILLER_103_1805
*1557 FILLER_103_181
*1558 FILLER_103_1817
*1559 FILLER_103_1829
*1560 FILLER_103_1841
*1561 FILLER_103_1847
*1562 FILLER_103_1849
*1563 FILLER_103_1861
*1564 FILLER_103_1873
*1565 FILLER_103_1885
*1566 FILLER_103_1897
*1567 FILLER_103_1903
*1568 FILLER_103_1905
*1569 FILLER_103_1917
*1570 FILLER_103_193
*1571 FILLER_103_205
*1572 FILLER_103_217
*1573 FILLER_103_223
*1574 FILLER_103_225
*1575 FILLER_103_237
*1576 FILLER_103_249
*1577 FILLER_103_261
*1578 FILLER_103_27
*1579 FILLER_103_273
*1580 FILLER_103_279
*1581 FILLER_103_281
*1582 FILLER_103_293
*1583 FILLER_103_3
*1584 FILLER_103_305
*1585 FILLER_103_317
*1586 FILLER_103_329
*1587 FILLER_103_335
*1588 FILLER_103_337
*1589 FILLER_103_349
*1590 FILLER_103_361
*1591 FILLER_103_373
*1592 FILLER_103_385
*1593 FILLER_103_39
*1594 FILLER_103_391
*1595 FILLER_103_393
*1596 FILLER_103_405
*1597 FILLER_103_417
*1598 FILLER_103_429
*1599 FILLER_103_441
*1600 FILLER_103_447
*1601 FILLER_103_449
*1602 FILLER_103_461
*1603 FILLER_103_473
*1604 FILLER_103_485
*1605 FILLER_103_497
*1606 FILLER_103_503
*1607 FILLER_103_505
*1608 FILLER_103_51
*1609 FILLER_103_517
*1610 FILLER_103_529
*1611 FILLER_103_541
*1612 FILLER_103_55
*1613 FILLER_103_553