*SPEF "ieee 1481-1999"
*DESIGN "macro_decap_3"
*DATE "11:11:11 Fri 11 11, 1111"
*VENDOR "OpenRCX"
*PROGRAM "Parallel Extraction"
*VERSION "1.0"
*DESIGN_FLOW "NAME_SCOPE LOCAL" "PIN_CAP NONE"
*DIVIDER /
*DELIMITER :
*BUS_DELIMITER []
*T_UNIT 1 NS
*C_UNIT 1 PF
*R_UNIT 1 OHM
*L_UNIT 1 HENRY

*NAME_MAP
*1 active
*2 analog_io[0]
*3 analog_io[10]
*4 analog_io[11]
*5 analog_io[12]
*6 analog_io[13]
*7 analog_io[14]
*8 analog_io[15]
*9 analog_io[16]
*10 analog_io[17]
*11 analog_io[18]
*12 analog_io[19]
*13 analog_io[1]
*14 analog_io[20]
*15 analog_io[21]
*16 analog_io[22]
*17 analog_io[23]
*18 analog_io[24]
*19 analog_io[25]
*20 analog_io[26]
*21 analog_io[27]
*22 analog_io[28]
*23 analog_io[2]
*24 analog_io[3]
*25 analog_io[4]
*26 analog_io[5]
*27 analog_io[6]
*28 analog_io[7]
*29 analog_io[8]
*30 analog_io[9]
*31 io_in[0]
*32 io_in[10]
*33 io_in[11]
*34 io_in[12]
*35 io_in[13]
*36 io_in[14]
*37 io_in[15]
*38 io_in[16]
*39 io_in[17]
*40 io_in[18]
*41 io_in[19]
*42 io_in[1]
*43 io_in[20]
*44 io_in[21]
*45 io_in[22]
*46 io_in[23]
*47 io_in[24]
*48 io_in[25]
*49 io_in[26]
*50 io_in[27]
*51 io_in[28]
*52 io_in[29]
*53 io_in[2]
*54 io_in[30]
*55 io_in[31]
*56 io_in[32]
*57 io_in[33]
*58 io_in[34]
*59 io_in[35]
*60 io_in[36]
*61 io_in[37]
*62 io_in[3]
*63 io_in[4]
*64 io_in[5]
*65 io_in[6]
*66 io_in[7]
*67 io_in[8]
*68 io_in[9]
*69 net234
*70 net244
*71 net245
*72 net246
*73 net247
*74 net248
*75 net249
*76 net250
*77 net251
*78 net252
*79 net253
*80 net235
*81 net254
*82 net255
*83 net256
*84 net257
*85 net258
*86 net259
*87 net260
*88 net261
*89 net37
*90 net38
*91 net236
*92 net39
*93 net40
*94 net41
*95 net42
*96 net43
*97 net44
*98 net45
*99 net46
*100 net237
*101 net238
*102 net239
*103 net240
*104 net241
*105 net242
*106 net243
*107 io_out[0]
*108 io_out[10]
*109 io_out[11]
*110 io_out[12]
*111 io_out[13]
*112 io_out[14]
*113 io_out[15]
*114 io_out[16]
*115 io_out[17]
*116 net50
*117 net51
*118 net47
*119 net52
*120 net53
*121 net54
*122 net55
*123 net56
*124 net57
*125 net58
*126 net59
*127 net60
*128 net61
*129 net48
*130 net62
*131 net63
*132 net64
*133 net65
*134 net66
*135 net67
*136 net68
*137 net69
*138 net49
*139 io_out[4]
*140 io_out[5]
*141 io_out[6]
*142 io_out[7]
*143 io_out[8]
*144 io_out[9]
*145 la_data_in[0]
*146 la_data_in[100]
*147 la_data_in[101]
*148 la_data_in[102]
*149 la_data_in[103]
*150 la_data_in[104]
*151 la_data_in[105]
*152 la_data_in[106]
*153 la_data_in[107]
*154 la_data_in[108]
*155 la_data_in[109]
*156 la_data_in[10]
*157 la_data_in[110]
*158 la_data_in[111]
*159 la_data_in[112]
*160 la_data_in[113]
*161 la_data_in[114]
*162 la_data_in[115]
*163 la_data_in[116]
*164 la_data_in[117]
*165 la_data_in[118]
*166 la_data_in[119]
*167 la_data_in[11]
*168 la_data_in[120]
*169 la_data_in[121]
*170 la_data_in[122]
*171 la_data_in[123]
*172 la_data_in[124]
*173 la_data_in[125]
*174 la_data_in[126]
*175 la_data_in[127]
*176 la_data_in[12]
*177 la_data_in[13]
*178 la_data_in[14]
*179 la_data_in[15]
*180 la_data_in[16]
*181 la_data_in[17]
*182 la_data_in[18]
*183 la_data_in[19]
*184 la_data_in[1]
*185 la_data_in[20]
*186 la_data_in[21]
*187 la_data_in[22]
*188 la_data_in[23]
*189 la_data_in[24]
*190 la_data_in[25]
*191 la_data_in[26]
*192 la_data_in[27]
*193 la_data_in[28]
*194 la_data_in[29]
*195 la_data_in[2]
*196 la_data_in[30]
*197 la_data_in[31]
*198 la_data_in[32]
*199 la_data_in[33]
*200 la_data_in[34]
*201 la_data_in[35]
*202 la_data_in[36]
*203 la_data_in[37]
*204 la_data_in[38]
*205 la_data_in[39]
*206 la_data_in[3]
*207 la_data_in[40]
*208 la_data_in[41]
*209 la_data_in[42]
*210 la_data_in[43]
*211 la_data_in[44]
*212 la_data_in[45]
*213 la_data_in[46]
*214 la_data_in[47]
*215 la_data_in[48]
*216 la_data_in[49]
*217 la_data_in[4]
*218 la_data_in[50]
*219 la_data_in[51]
*220 la_data_in[52]
*221 la_data_in[53]
*222 la_data_in[54]
*223 la_data_in[55]
*224 la_data_in[56]
*225 la_data_in[57]
*226 la_data_in[58]
*227 la_data_in[59]
*228 la_data_in[5]
*229 la_data_in[60]
*230 la_data_in[61]
*231 la_data_in[62]
*232 la_data_in[63]
*233 la_data_in[64]
*234 la_data_in[65]
*235 la_data_in[66]
*236 la_data_in[67]
*237 la_data_in[68]
*238 la_data_in[69]
*239 la_data_in[6]
*240 la_data_in[70]
*241 la_data_in[71]
*242 la_data_in[72]
*243 la_data_in[73]
*244 la_data_in[74]
*245 la_data_in[75]
*246 la_data_in[76]
*247 la_data_in[77]
*248 la_data_in[78]
*249 la_data_in[79]
*250 la_data_in[7]
*251 la_data_in[80]
*252 la_data_in[81]
*253 la_data_in[82]
*254 la_data_in[83]
*255 la_data_in[84]
*256 la_data_in[85]
*257 la_data_in[86]
*258 la_data_in[87]
*259 la_data_in[88]
*260 la_data_in[89]
*261 la_data_in[8]
*262 la_data_in[90]
*263 la_data_in[91]
*264 la_data_in[92]
*265 la_data_in[93]
*266 la_data_in[94]
*267 la_data_in[95]
*268 la_data_in[96]
*269 la_data_in[97]
*270 la_data_in[98]
*271 la_data_in[99]
*272 la_data_in[9]
*273 net70
*274 net138
*275 net139
*276 net140
*277 net141
*278 net142
*279 net143
*280 net144
*281 net145
*282 net146
*283 net147
*284 net80
*285 net148
*286 net149
*287 net150
*288 net151
*289 net152
*290 net153
*291 net154
*292 net155
*293 net156
*294 net157
*295 net81
*296 net158
*297 net159
*298 net160
*299 net161
*300 net162
*301 net163
*302 net164
*303 net165
*304 net82
*305 net83
*306 net84
*307 net85
*308 net86
*309 net87
*310 net88
*311 net89
*312 net71
*313 net90
*314 net91
*315 net92
*316 net93
*317 net94
*318 net95
*319 net96
*320 net97
*321 net98
*322 net99
*323 net72
*324 net100
*325 net101
*326 la_data_out[32]
*327 la_data_out[33]
*328 la_data_out[34]
*329 la_data_out[35]
*330 la_data_out[36]
*331 la_data_out[37]
*332 la_data_out[38]
*333 la_data_out[39]
*334 net73
*335 la_data_out[40]
*336 la_data_out[41]
*337 la_data_out[42]
*338 la_data_out[43]
*339 la_data_out[44]
*340 la_data_out[45]
*341 la_data_out[46]
*342 la_data_out[47]
*343 la_data_out[48]
*344 la_data_out[49]
*345 net74
*346 la_data_out[50]
*347 la_data_out[51]
*348 la_data_out[52]
*349 la_data_out[53]
*350 la_data_out[54]
*351 la_data_out[55]
*352 la_data_out[56]
*353 la_data_out[57]
*354 la_data_out[58]
*355 la_data_out[59]
*356 net75
*357 la_data_out[60]
*358 la_data_out[61]
*359 la_data_out[62]
*360 la_data_out[63]
*361 net102
*362 net103
*363 net104
*364 net105
*365 net106
*366 net107
*367 net76
*368 net108
*369 net109
*370 net110
*371 net111
*372 net112
*373 net113
*374 net114
*375 net115
*376 net116
*377 net117
*378 net77
*379 net118
*380 net119
*381 net120
*382 net121
*383 net122
*384 net123
*385 net124
*386 net125
*387 net126
*388 net127
*389 net78
*390 net128
*391 net129
*392 net130
*393 net131
*394 net132
*395 net133
*396 net134
*397 net135
*398 net136
*399 net137
*400 net79
*401 la_oenb[0]
*402 la_oenb[100]
*403 la_oenb[101]
*404 la_oenb[102]
*405 la_oenb[103]
*406 la_oenb[104]
*407 la_oenb[105]
*408 la_oenb[106]
*409 la_oenb[107]
*410 la_oenb[108]
*411 la_oenb[109]
*412 la_oenb[10]
*413 la_oenb[110]
*414 la_oenb[111]
*415 la_oenb[112]
*416 la_oenb[113]
*417 la_oenb[114]
*418 la_oenb[115]
*419 la_oenb[116]
*420 la_oenb[117]
*421 la_oenb[118]
*422 la_oenb[119]
*423 la_oenb[11]
*424 la_oenb[120]
*425 la_oenb[121]
*426 la_oenb[122]
*427 la_oenb[123]
*428 la_oenb[124]
*429 la_oenb[125]
*430 la_oenb[126]
*431 la_oenb[127]
*432 la_oenb[12]
*433 la_oenb[13]
*434 la_oenb[14]
*435 la_oenb[15]
*436 la_oenb[16]
*437 la_oenb[17]
*438 la_oenb[18]
*439 la_oenb[19]
*440 la_oenb[1]
*441 la_oenb[20]
*442 la_oenb[21]
*443 la_oenb[22]
*444 la_oenb[23]
*445 la_oenb[24]
*446 la_oenb[25]
*447 la_oenb[26]
*448 la_oenb[27]
*449 la_oenb[28]
*450 la_oenb[29]
*451 la_oenb[2]
*452 la_oenb[30]
*453 la_oenb[31]
*454 la_oenb[32]
*455 la_oenb[33]
*456 la_oenb[34]
*457 la_oenb[35]
*458 la_oenb[36]
*459 la_oenb[37]
*460 la_oenb[38]
*461 la_oenb[39]
*462 la_oenb[3]
*463 la_oenb[40]
*464 la_oenb[41]
*465 la_oenb[42]
*466 la_oenb[43]
*467 la_oenb[44]
*468 la_oenb[45]
*469 la_oenb[46]
*470 la_oenb[47]
*471 la_oenb[48]
*472 la_oenb[49]
*473 la_oenb[4]
*474 la_oenb[50]
*475 la_oenb[51]
*476 la_oenb[52]
*477 la_oenb[53]
*478 la_oenb[54]
*479 la_oenb[55]
*480 la_oenb[56]
*481 la_oenb[57]
*482 la_oenb[58]
*483 la_oenb[59]
*484 la_oenb[5]
*485 la_oenb[60]
*486 la_oenb[61]
*487 la_oenb[62]
*488 la_oenb[63]
*489 la_oenb[64]
*490 la_oenb[65]
*491 la_oenb[66]
*492 la_oenb[67]
*493 la_oenb[68]
*494 la_oenb[69]
*495 la_oenb[6]
*496 la_oenb[70]
*497 la_oenb[71]
*498 la_oenb[72]
*499 la_oenb[73]
*500 la_oenb[74]
*501 la_oenb[75]
*502 la_oenb[76]
*503 la_oenb[77]
*504 la_oenb[78]
*505 la_oenb[79]
*506 la_oenb[7]
*507 la_oenb[80]
*508 la_oenb[81]
*509 la_oenb[82]
*510 la_oenb[83]
*511 la_oenb[84]
*512 la_oenb[85]
*513 la_oenb[86]
*514 la_oenb[87]
*515 la_oenb[88]
*516 la_oenb[89]
*517 la_oenb[8]
*518 la_oenb[90]
*519 la_oenb[91]
*520 la_oenb[92]
*521 la_oenb[93]
*522 la_oenb[94]
*523 la_oenb[95]
*524 la_oenb[96]
*525 la_oenb[97]
*526 la_oenb[98]
*527 la_oenb[99]
*528 la_oenb[9]
*529 user_clock2
*530 net166
*531 net167
*532 net168
*535 wb_clk_i
*536 wb_rst_i
*537 net169
*538 wbs_adr_i[0]
*539 wbs_adr_i[10]
*540 wbs_adr_i[11]
*541 wbs_adr_i[12]
*542 wbs_adr_i[13]
*543 wbs_adr_i[14]
*544 wbs_adr_i[15]
*545 wbs_adr_i[16]
*546 wbs_adr_i[17]
*547 wbs_adr_i[18]
*548 wbs_adr_i[19]
*549 wbs_adr_i[1]
*550 wbs_adr_i[20]
*551 wbs_adr_i[21]
*552 wbs_adr_i[22]
*553 wbs_adr_i[23]
*554 wbs_adr_i[24]
*555 wbs_adr_i[25]
*556 wbs_adr_i[26]
*557 wbs_adr_i[27]
*558 wbs_adr_i[28]
*559 wbs_adr_i[29]
*560 wbs_adr_i[2]
*561 wbs_adr_i[30]
*562 wbs_adr_i[31]
*563 wbs_adr_i[3]
*564 wbs_adr_i[4]
*565 wbs_adr_i[5]
*566 wbs_adr_i[6]
*567 wbs_adr_i[7]
*568 wbs_adr_i[8]
*569 wbs_adr_i[9]
*570 wbs_cyc_i
*571 wbs_dat_i[0]
*572 wbs_dat_i[10]
*573 wbs_dat_i[11]
*574 wbs_dat_i[12]
*575 wbs_dat_i[13]
*576 wbs_dat_i[14]
*577 wbs_dat_i[15]
*578 wbs_dat_i[16]
*579 wbs_dat_i[17]
*580 wbs_dat_i[18]
*581 wbs_dat_i[19]
*582 wbs_dat_i[1]
*583 wbs_dat_i[20]
*584 wbs_dat_i[21]
*585 wbs_dat_i[22]
*586 wbs_dat_i[23]
*587 wbs_dat_i[24]
*588 wbs_dat_i[25]
*589 wbs_dat_i[26]
*590 wbs_dat_i[27]
*591 wbs_dat_i[28]
*592 wbs_dat_i[29]
*593 wbs_dat_i[2]
*594 wbs_dat_i[30]
*595 wbs_dat_i[31]
*596 wbs_dat_i[3]
*597 wbs_dat_i[4]
*598 wbs_dat_i[5]
*599 wbs_dat_i[6]
*600 wbs_dat_i[7]
*601 wbs_dat_i[8]
*602 wbs_dat_i[9]
*603 net170
*604 net180
*605 net181
*606 net182
*607 net183
*608 net184
*609 net185
*610 net186
*611 net187
*612 net188
*613 net189
*614 net171
*615 net190
*616 net191
*617 net192
*618 net193
*619 net194
*620 net195
*621 net196
*622 net197
*623 net198
*624 net199
*625 net172
*626 net200
*627 net201
*628 net173
*629 net174
*630 net175
*631 net176
*632 net177
*633 net178
*634 net179
*635 wbs_sel_i[0]
*636 wbs_sel_i[1]
*637 wbs_sel_i[2]
*638 wbs_sel_i[3]
*639 wbs_stb_i
*640 wbs_we_i
*641 _000_
*642 _001_
*643 _002_
*644 _003_
*645 _004_
*646 _005_
*647 _006_
*648 _007_
*649 _008_
*650 _009_
*651 _010_
*652 _011_
*653 _012_
*654 _013_
*655 _014_
*656 _015_
*657 _016_
*658 _017_
*659 _018_
*660 _019_
*661 _020_
*662 _021_
*663 _022_
*664 _023_
*665 _024_
*666 _025_
*667 _026_
*668 _027_
*669 _028_
*670 _029_
*671 _030_
*672 _031_
*673 _032_
*674 _033_
*675 _034_
*676 _035_
*677 _036_
*678 _037_
*679 _038_
*680 _039_
*681 _040_
*682 _041_
*683 _042_
*684 _043_
*685 _044_
*686 _045_
*687 _046_
*688 _047_
*689 _048_
*690 _049_
*691 _050_
*692 _051_
*693 _052_
*694 _053_
*695 _054_
*696 _055_
*697 _056_
*698 _057_
*699 _058_
*700 _059_
*701 _060_
*702 _061_
*703 _062_
*704 _063_
*705 _064_
*706 _065_
*707 _066_
*708 _067_
*709 _068_
*710 _069_
*711 _070_
*712 _071_
*713 _072_
*714 _073_
*715 _074_
*716 _075_
*717 _076_
*718 _077_
*719 _078_
*720 _079_
*721 _080_
*722 _081_
*723 _082_
*724 _083_
*725 _084_
*726 _085_
*727 _086_
*728 _087_
*729 _088_
*730 _089_
*731 _090_
*732 _091_
*733 _092_
*734 _093_
*735 _094_
*736 _095_
*737 _096_
*738 _097_
*739 _098_
*740 _099_
*741 _100_
*742 _101_
*743 _102_
*744 _103_
*745 _104_
*746 _105_
*747 _106_
*748 _107_
*749 _108_
*750 _109_
*751 _110_
*752 _111_
*753 _112_
*754 _113_
*755 _114_
*756 _115_
*757 _116_
*758 _117_
*759 _118_
*760 _119_
*761 _120_
*762 _121_
*763 _122_
*764 _123_
*765 _124_
*766 _125_
*767 _126_
*768 _127_
*769 _128_
*770 _129_
*771 _130_
*772 _131_
*773 _132_
*774 _133_
*775 _134_
*776 _135_
*777 _136_
*778 _137_
*779 net1
*780 net10
*781 net11
*782 net12
*783 net13
*784 net14
*785 net15
*786 net16
*787 net17
*788 net18
*789 net19
*790 net2
*791 net20
*792 net202
*793 net203
*794 net204
*795 net205
*796 net206
*797 net207
*798 net208
*799 net209
*800 net21
*801 net210
*802 net211
*803 net212
*804 net213
*805 net214
*806 net215
*807 net216
*808 net217
*809 net218
*810 net219
*811 net22
*812 net220
*813 net221
*814 net222
*815 net223
*816 net224
*817 net225
*818 net226
*819 net227
*820 net228
*821 net229
*822 net23
*823 net230
*824 net231
*825 net232
*826 net233
*827 net24
*828 net25
*829 net26
*830 net27
*831 net28
*832 net29
*833 net3
*834 net30
*835 net31
*836 net32
*837 net33
*838 net34
*839 net35
*840 net36
*841 net4
*842 net5
*843 net6
*844 net7
*845 net8
*846 net9
*847 ANTENNA__170__A
*848 ANTENNA__171__A
*849 ANTENNA__172__A
*850 ANTENNA__197__A
*851 ANTENNA__203__A
*852 ANTENNA__211__A_N
*853 ANTENNA__211__B
*854 ANTENNA__230__A
*855 ANTENNA__234__A_N
*856 ANTENNA__234__B
*857 ANTENNA__253__A
*858 ANTENNA__258__B2
*859 ANTENNA__259__A
*860 ANTENNA__260__B2
*861 ANTENNA__263__A
*862 ANTENNA__264__B2
*863 ANTENNA__267__A
*864 ANTENNA__270__A
*865 ANTENNA__275__A
*866 ANTENNA__276__A2
*867 ANTENNA__277__A2
*868 ANTENNA__281__A
*869 ANTENNA__282__A2
*870 ANTENNA__290__A1
*871 ANTENNA__291__A
*872 ANTENNA__294__B1
*873 ANTENNA__295__A1
*874 ANTENNA__311__A2
*875 ANTENNA__312__A2
*876 ANTENNA__321__C1
*877 ANTENNA_input10_A
*878 ANTENNA_input11_A
*879 ANTENNA_input12_A
*880 ANTENNA_input13_A
*881 ANTENNA_input14_A
*882 ANTENNA_input15_A
*883 ANTENNA_input16_A
*884 ANTENNA_input17_A
*885 ANTENNA_input18_A
*886 ANTENNA_input19_A
*887 ANTENNA_input1_A
*888 ANTENNA_input20_A
*889 ANTENNA_input21_A
*890 ANTENNA_input2_A
*891 ANTENNA_input3_A
*892 ANTENNA_input4_A
*893 ANTENNA_input5_A
*894 ANTENNA_input6_A
*895 ANTENNA_input7_A
*896 ANTENNA_input8_A
*897 ANTENNA_input9_A
*898 ANTENNA_output22_A
*899 ANTENNA_output32_A
*900 FILLER_0_103
*901 FILLER_0_107
*902 FILLER_0_111
*903 FILLER_0_116
*904 FILLER_0_123
*905 FILLER_0_13
*906 FILLER_0_130
*907 FILLER_0_138
*908 FILLER_0_144
*909 FILLER_0_151
*910 FILLER_0_158
*911 FILLER_0_166
*912 FILLER_0_169
*913 FILLER_0_173
*914 FILLER_0_178
*915 FILLER_0_185
*916 FILLER_0_192
*917 FILLER_0_197
*918 FILLER_0_20
*919 FILLER_0_220
*920 FILLER_0_246
*921 FILLER_0_250
*922 FILLER_0_274
*923 FILLER_0_278
*924 FILLER_0_302
*925 FILLER_0_306
*926 FILLER_0_32
*927 FILLER_0_330
*928 FILLER_0_334
*929 FILLER_0_358
*930 FILLER_0_362
*931 FILLER_0_368
*932 FILLER_0_375
*933 FILLER_0_382
*934 FILLER_0_39
*935 FILLER_0_390
*936 FILLER_0_396
*937 FILLER_0_403
*938 FILLER_0_410
*939 FILLER_0_418
*940 FILLER_0_424
*941 FILLER_0_431
*942 FILLER_0_438
*943 FILLER_0_446
*944 FILLER_0_452
*945 FILLER_0_459
*946 FILLER_0_46
*947 FILLER_0_466
*948 FILLER_0_474
*949 FILLER_0_480
*950 FILLER_0_487
*951 FILLER_0_494
*952 FILLER_0_502
*953 FILLER_0_508
*954 FILLER_0_54
*955 FILLER_0_6
*956 FILLER_0_60
*957 FILLER_0_67
*958 FILLER_0_74
*959 FILLER_0_82
*960 FILLER_0_88
*961 FILLER_0_95
*962 FILLER_10_101
*963 FILLER_10_109
*964 FILLER_10_11
*965 FILLER_10_117
*966 FILLER_10_125
*967 FILLER_10_133
*968 FILLER_10_137
*969 FILLER_10_141
*970 FILLER_10_149
*971 FILLER_10_157
*972 FILLER_10_165
*973 FILLER_10_173
*974 FILLER_10_181
*975 FILLER_10_189
*976 FILLER_10_19
*977 FILLER_10_193
*978 FILLER_10_197
*979 FILLER_10_205
*980 FILLER_10_213
*981 FILLER_10_221
*982 FILLER_10_229
*983 FILLER_10_239
*984 FILLER_10_243
*985 FILLER_10_248
*986 FILLER_10_256
*987 FILLER_10_263
*988 FILLER_10_27
*989 FILLER_10_270
*990 FILLER_10_277
*991 FILLER_10_284
*992 FILLER_10_29
*993 FILLER_10_292
*994 FILLER_10_3
*995 FILLER_10_300
*996 FILLER_10_309
*997 FILLER_10_317
*998 FILLER_10_325
*999 FILLER_10_333
*1000 FILLER_10_341
*1001 FILLER_10_349
*1002 FILLER_10_357
*1003 FILLER_10_361
*1004 FILLER_10_365
*1005 FILLER_10_37
*1006 FILLER_10_373
*1007 FILLER_10_381
*1008 FILLER_10_389
*1009 FILLER_10_397
*1010 FILLER_10_405
*1011 FILLER_10_413
*1012 FILLER_10_417
*1013 FILLER_10_421
*1014 FILLER_10_429
*1015 FILLER_10_437
*1016 FILLER_10_445
*1017 FILLER_10_45
*1018 FILLER_10_453
*1019 FILLER_10_461
*1020 FILLER_10_469
*1021 FILLER_10_473
*1022 FILLER_10_477
*1023 FILLER_10_485
*1024 FILLER_10_493
*1025 FILLER_10_501
*1026 FILLER_10_509
*1027 FILLER_10_513
*1028 FILLER_10_53
*1029 FILLER_10_61
*1030 FILLER_10_69
*1031 FILLER_10_77
*1032 FILLER_10_81
*1033 FILLER_10_85
*1034 FILLER_10_93
*1035 FILLER_11_105
*1036 FILLER_11_109
*1037 FILLER_11_11
*1038 FILLER_11_113
*1039 FILLER_11_121
*1040 FILLER_11_129
*1041 FILLER_11_137
*1042 FILLER_11_145
*1043 FILLER_11_153
*1044 FILLER_11_161
*1045 FILLER_11_165
*1046 FILLER_11_169
*1047 FILLER_11_177
*1048 FILLER_11_185
*1049 FILLER_11_19
*1050 FILLER_11_193
*1051 FILLER_11_201
*1052 FILLER_11_209
*1053 FILLER_11_217
*1054 FILLER_11_221
*1055 FILLER_11_225
*1056 FILLER_11_233
*1057 FILLER_11_241
*1058 FILLER_11_249
*1059 FILLER_11_257
*1060 FILLER_11_265
*1061 FILLER_11_27
*1062 FILLER_11_273
*1063 FILLER_11_277
*1064 FILLER_11_281
*1065 FILLER_11_289
*1066 FILLER_11_297
*1067 FILLER_11_3
*1068 FILLER_11_305
*1069 FILLER_11_313
*1070 FILLER_11_321
*1071 FILLER_11_329
*1072 FILLER_11_333
*1073 FILLER_11_337
*1074 FILLER_11_345
*1075 FILLER_11_35
*1076 FILLER_11_353
*1077 FILLER_11_361
*1078 FILLER_11_369
*1079 FILLER_11_377
*1080 FILLER_11_385
*1081 FILLER_11_389
*1082 FILLER_11_393
*1083 FILLER_11_401
*1084 FILLER_11_409
*1085 FILLER_11_417
*1086 FILLER_11_425
*1087 FILLER_11_43
*1088 FILLER_11_433
*1089 FILLER_11_441
*1090 FILLER_11_445
*1091 FILLER_11_449
*1092 FILLER_11_457
*1093 FILLER_11_465
*1094 FILLER_11_473
*1095 FILLER_11_481
*1096 FILLER_11_489
*1097 FILLER_11_497
*1098 FILLER_11_501
*1099 FILLER_11_505
*1100 FILLER_11_51
*1101 FILLER_11_513
*1102 FILLER_11_55
*1103 FILLER_11_57
*1104 FILLER_11_65
*1105 FILLER_11_73
*1106 FILLER_11_81
*1107 FILLER_11_89
*1108 FILLER_11_97
*1109 FILLER_12_101
*1110 FILLER_12_109
*1111 FILLER_12_11
*1112 FILLER_12_117
*1113 FILLER_12_125
*1114 FILLER_12_133
*1115 FILLER_12_137
*1116 FILLER_12_141
*1117 FILLER_12_149
*1118 FILLER_12_157
*1119 FILLER_12_165
*1120 FILLER_12_173
*1121 FILLER_12_181
*1122 FILLER_12_189
*1123 FILLER_12_19
*1124 FILLER_12_193
*1125 FILLER_12_197
*1126 FILLER_12_205
*1127 FILLER_12_213
*1128 FILLER_12_221
*1129 FILLER_12_229
*1130 FILLER_12_237
*1131 FILLER_12_245
*1132 FILLER_12_249
*1133 FILLER_12_253
*1134 FILLER_12_261
*1135 FILLER_12_269
*1136 FILLER_12_27
*1137 FILLER_12_277
*1138 FILLER_12_285
*1139 FILLER_12_29
*1140 FILLER_12_293
*1141 FILLER_12_3
*1142 FILLER_12_301
*1143 FILLER_12_305
*1144 FILLER_12_309
*1145 FILLER_12_317
*1146 FILLER_12_325
*1147 FILLER_12_333
*1148 FILLER_12_341
*1149 FILLER_12_349
*1150 FILLER_12_357
*1151 FILLER_12_361
*1152 FILLER_12_365
*1153 FILLER_12_37
*1154 FILLER_12_373
*1155 FILLER_12_381
*1156 FILLER_12_389
*1157 FILLER_12_397
*1158 FILLER_12_405
*1159 FILLER_12_413
*1160 FILLER_12_417
*1161 FILLER_12_421
*1162 FILLER_12_429
*1163 FILLER_12_437
*1164 FILLER_12_445
*1165 FILLER_12_45
*1166 FILLER_12_453
*1167 FILLER_12_461
*1168 FILLER_12_469
*1169 FILLER_12_473
*1170 FILLER_12_477
*1171 FILLER_12_485
*1172 FILLER_12_493
*1173 FILLER_12_501
*1174 FILLER_12_509
*1175 FILLER_12_513
*1176 FILLER_12_53
*1177 FILLER_12_61
*1178 FILLER_12_69
*1179 FILLER_12_77
*1180 FILLER_12_81
*1181 FILLER_12_85
*1182 FILLER_12_93
*1183 FILLER_13_105
*1184 FILLER_13_109
*1185 FILLER_13_11
*1186 FILLER_13_113
*1187 FILLER_13_121
*1188 FILLER_13_129
*1189 FILLER_13_137
*1190 FILLER_13_145
*1191 FILLER_13_153
*1192 FILLER_13_161
*1193 FILLER_13_165
*1194 FILLER_13_169
*1195 FILLER_13_177
*1196 FILLER_13_185
*1197 FILLER_13_19
*1198 FILLER_13_193
*1199 FILLER_13_201
*1200 FILLER_13_209
*1201 FILLER_13_217
*1202 FILLER_13_221
*1203 FILLER_13_225
*1204 FILLER_13_233
*1205 FILLER_13_241
*1206 FILLER_13_249
*1207 FILLER_13_257
*1208 FILLER_13_265
*1209 FILLER_13_27
*1210 FILLER_13_273
*1211 FILLER_13_277
*1212 FILLER_13_281
*1213 FILLER_13_289
*1214 FILLER_13_297
*1215 FILLER_13_3
*1216 FILLER_13_305
*1217 FILLER_13_313
*1218 FILLER_13_321
*1219 FILLER_13_329
*1220 FILLER_13_333
*1221 FILLER_13_337
*1222 FILLER_13_345
*1223 FILLER_13_35
*1224 FILLER_13_353
*1225 FILLER_13_361
*1226 FILLER_13_369
*1227 FILLER_13_377
*1228 FILLER_13_385
*1229 FILLER_13_389
*1230 FILLER_13_393
*1231 FILLER_13_401
*1232 FILLER_13_409
*1233 FILLER_13_417
*1234 FILLER_13_425
*1235 FILLER_13_43
*1236 FILLER_13_433
*1237 FILLER_13_441
*1238 FILLER_13_445
*1239 FILLER_13_449
*1240 FILLER_13_457
*1241 FILLER_13_465
*1242 FILLER_13_473
*1243 FILLER_13_481
*1244 FILLER_13_489
*1245 FILLER_13_497
*1246 FILLER_13_501
*1247 FILLER_13_505
*1248 FILLER_13_51
*1249 FILLER_13_513
*1250 FILLER_13_55
*1251 FILLER_13_57
*1252 FILLER_13_65
*1253 FILLER_13_73
*1254 FILLER_13_81
*1255 FILLER_13_89
*1256 FILLER_13_97
*1257 FILLER_14_101
*1258 FILLER_14_109
*1259 FILLER_14_11
*1260 FILLER_14_117
*1261 FILLER_14_125
*1262 FILLER_14_133
*1263 FILLER_14_137
*1264 FILLER_14_141
*1265 FILLER_14_149
*1266 FILLER_14_157
*1267 FILLER_14_165
*1268 FILLER_14_173
*1269 FILLER_14_181
*1270 FILLER_14_189
*1271 FILLER_14_19
*1272 FILLER_14_193
*1273 FILLER_14_197
*1274 FILLER_14_205
*1275 FILLER_14_213
*1276 FILLER_14_221
*1277 FILLER_14_229
*1278 FILLER_14_237
*1279 FILLER_14_245
*1280 FILLER_14_249
*1281 FILLER_14_253
*1282 FILLER_14_261
*1283 FILLER_14_269
*1284 FILLER_14_27
*1285 FILLER_14_277
*1286 FILLER_14_285
*1287 FILLER_14_29
*1288 FILLER_14_293
*1289 FILLER_14_3
*1290 FILLER_14_301
*1291 FILLER_14_305
*1292 FILLER_14_309
*1293 FILLER_14_317
*1294 FILLER_14_325
*1295 FILLER_14_333
*1296 FILLER_14_341
*1297 FILLER_14_349
*1298 FILLER_14_357
*1299 FILLER_14_361
*1300 FILLER_14_365
*1301 FILLER_14_37
*1302 FILLER_14_373
*1303 FILLER_14_381
*1304 FILLER_14_389
*1305 FILLER_14_397
*1306 FILLER_14_405
*1307 FILLER_14_413
*1308 FILLER_14_417
*1309 FILLER_14_421
*1310 FILLER_14_429
*1311 FILLER_14_437
*1312 FILLER_14_445
*1313 FILLER_14_45
*1314 FILLER_14_453
*1315 FILLER_14_461
*1316 FILLER_14_469
*1317 FILLER_14_473
*1318 FILLER_14_477
*1319 FILLER_14_485
*1320 FILLER_14_493
*1321 FILLER_14_501
*1322 FILLER_14_509
*1323 FILLER_14_513
*1324 FILLER_14_53
*1325 FILLER_14_61
*1326 FILLER_14_69
*1327 FILLER_14_77
*1328 FILLER_14_81
*1329 FILLER_14_85
*1330 FILLER_14_93
*1331 FILLER_15_105
*1332 FILLER_15_109
*1333 FILLER_15_11
*1334 FILLER_15_113
*1335 FILLER_15_121
*1336 FILLER_15_129
*1337 FILLER_15_137
*1338 FILLER_15_145
*1339 FILLER_15_153
*1340 FILLER_15_161
*1341 FILLER_15_165
*1342 FILLER_15_169
*1343 FILLER_15_177
*1344 FILLER_15_185
*1345 FILLER_15_19
*1346 FILLER_15_193
*1347 FILLER_15_201
*1348 FILLER_15_209
*1349 FILLER_15_217
*1350 FILLER_15_221
*1351 FILLER_15_225
*1352 FILLER_15_233
*1353 FILLER_15_241
*1354 FILLER_15_249
*1355 FILLER_15_257
*1356 FILLER_15_265
*1357 FILLER_15_27
*1358 FILLER_15_273
*1359 FILLER_15_277
*1360 FILLER_15_281
*1361 FILLER_15_289
*1362 FILLER_15_297
*1363 FILLER_15_3
*1364 FILLER_15_305
*1365 FILLER_15_313
*1366 FILLER_15_321
*1367 FILLER_15_329
*1368 FILLER_15_333
*1369 FILLER_15_337
*1370 FILLER_15_345
*1371 FILLER_15_35
*1372 FILLER_15_353
*1373 FILLER_15_361
*1374 FILLER_15_369
*1375 FILLER_15_377
*1376 FILLER_15_385
*1377 FILLER_15_389
*1378 FILLER_15_393
*1379 FILLER_15_401
*1380 FILLER_15_409
*1381 FILLER_15_417
*1382 FILLER_15_425
*1383 FILLER_15_43
*1384 FILLER_15_433
*1385 FILLER_15_441
*1386 FILLER_15_445
*1387 FILLER_15_449
*1388 FILLER_15_457
*1389 FILLER_15_465
*1390 FILLER_15_473
*1391 FILLER_15_481
*1392 FILLER_15_489
*1393 FILLER_15_497
*1394 FILLER_15_501
*1395 FILLER_15_505
*1396 FILLER_15_51
*1397 FILLER_15_513
*1398 FILLER_15_55
*1399 FILLER_15_57
*1400 FILLER_15_65
*1401 FILLER_15_73
*1402 FILLER_15_81
*1403 FILLER_15_89
*1404 FILLER_15_97
*1405 FILLER_16_101
*1406 FILLER_16_109
*1407 FILLER_16_11
*1408 FILLER_16_117
*1409 FILLER_16_125
*1410 FILLER_16_133
*1411 FILLER_16_137
*1412 FILLER_16_141
*1413 FILLER_16_149
*1414 FILLER_16_157
*1415 FILLER_16_165
*1416 FILLER_16_173
*1417 FILLER_16_181
*1418 FILLER_16_189
*1419 FILLER_16_19
*1420 FILLER_16_193
*1421 FILLER_16_197
*1422 FILLER_16_205
*1423 FILLER_16_213
*1424 FILLER_16_221
*1425 FILLER_16_229
*1426 FILLER_16_237
*1427 FILLER_16_245
*1428 FILLER_16_249
*1429 FILLER_16_253
*1430 FILLER_16_261
*1431 FILLER_16_269
*1432 FILLER_16_27
*1433 FILLER_16_277
*1434 FILLER_16_285
*1435 FILLER_16_29
*1436 FILLER_16_293
*1437 FILLER_16_3
*1438 FILLER_16_301
*1439 FILLER_16_305
*1440 FILLER_16_309
*1441 FILLER_16_317
*1442 FILLER_16_325
*1443 FILLER_16_333
*1444 FILLER_16_341
*1445 FILLER_16_349
*1446 FILLER_16_357
*1447 FILLER_16_361
*1448 FILLER_16_365
*1449 FILLER_16_37
*1450 FILLER_16_373
*1451 FILLER_16_381
*1452 FILLER_16_389
*1453 FILLER_16_397
*1454 FILLER_16_405
*1455 FILLER_16_413
*1456 FILLER_16_417
*1457 FILLER_16_421
*1458 FILLER_16_429
*1459 FILLER_16_437
*1460 FILLER_16_445
*1461 FILLER_16_45
*1462 FILLER_16_453
*1463 FILLER_16_461
*1464 FILLER_16_469
*1465 FILLER_16_473
*1466 FILLER_16_477
*1467 FILLER_16_485
*1468 FILLER_16_493
*1469 FILLER_16_501
*1470 FILLER_16_509
*1471 FILLER_16_513
*1472 FILLER_16_53
*1473 FILLER_16_61
*1474 FILLER_16_69
*1475 FILLER_16_77
*1476 FILLER_16_81
*1477 FILLER_16_85
*1478 FILLER_16_93
*1479 FILLER_17_105
*1480 FILLER_17_109
*1481 FILLER_17_11
*1482 FILLER_17_113
*1483 FILLER_17_121
*1484 FILLER_17_129
*1485 FILLER_17_137
*1486 FILLER_17_145
*1487 FILLER_17_153
*1488 FILLER_17_161
*1489 FILLER_17_165
*1490 FILLER_17_169
*1491 FILLER_17_177
*1492 FILLER_17_185
*1493 FILLER_17_19
*1494 FILLER_17_193
*1495 FILLER_17_201
*1496 FILLER_17_209
*1497 FILLER_17_217
*1498 FILLER_17_221
*1499 FILLER_17_225
*1500 FILLER_17_233
*1501 FILLER_17_241
*1502 FILLER_17_249
*1503 FILLER_17_257
*1504 FILLER_17_265
*1505 FILLER_17_27
*1506 FILLER_17_273
*1507 FILLER_17_277
*1508 FILLER_17_281
*1509 FILLER_17_289
*1510 FILLER_17_297
*1511 FILLER_17_3
*1512 FILLER_17_305
*1513 FILLER_17_313
*1514 FILLER_17_321
*1515 FILLER_17_329
*1516 FILLER_17_333
*1517 FILLER_17_337
*1518 FILLER_17_345
*1519 FILLER_17_35
*1520 FILLER_17_353
*1521 FILLER_17_361
*1522 FILLER_17_369
*1523 FILLER_17_377
*1524 FILLER_17_385
*1525 FILLER_17_389
*1526 FILLER_17_393
*1527 FILLER_17_401
*1528 FILLER_17_409
*1529 FILLER_17_417
*1530 FILLER_17_425
*1531 FILLER_17_43
*1532 FILLER_17_433
*1533 FILLER_17_441
*1534 FILLER_17_445
*1535 FILLER_17_449
*1536 FILLER_17_457
*1537 FILLER_17_465
*1538 FILLER_17_473
*1539 FILLER_17_481
*1540 FILLER_17_489
*1541 FILLER_17_497
*1542 FILLER_17_501
*1543 FILLER_17_505
*1544 FILLER_17_51
*1545 FILLER_17_513
*1546 FILLER_17_55
*1547 FILLER_17_57
*1548 FILLER_17_65
*1549 FILLER_17_73
*1550 FILLER_17_81
*1551 FILLER_17_89
*1552 FILLER_17_97
*1553 FILLER_18_101
*1554 FILLER_18_109
*1555 FILLER_18_11
*1556 FILLER_18_117
*1557 FILLER_18_125
*1558 FILLER_18_133
*1559 FILLER_18_137
*1560 FILLER_18_141
*1561 FILLER_18_149
*1562 FILLER_18_157
*1563 FILLER_18_165
*1564 FILLER_18_173
*1565 FILLER_18_181
*1566 FILLER_18_189
*1567 FILLER_18_19
*1568 FILLER_18_193
*1569 FILLER_18_197
*1570 FILLER_18_205
*1571 FILLER_18_213
*1572 FILLER_18_221
*1573 FILLER_18_229
*1574 FILLER_18_237
*1575 FILLER_18_245
*1576 FILLER_18_249
*1577 FILLER_18_253
*1578 FILLER_18_261
*1579 FILLER_18_269
*1580 FILLER_18_27
*1581 FILLER_18_277
*1582 FILLER_18_285
*1583 FILLER_18_29
*1584 FILLER_18_293
*1585 FILLER_18_3
*1586 FILLER_18_301
*1587 FILLER_18_305
*1588 FILLER_18_309
*1589 FILLER_18_317
*1590 FILLER_18_325
*1591 FILLER_18_333
*1592 FILLER_18_341
*1593 FILLER_18_349
*1594 FILLER_18_357
*1595 FILLER_18_361
*1596 FILLER_18_365
*1597 FILLER_18_37
*1598 FILLER_18_373
*1599 FILLER_18_381
*1600 FILLER_18_389
*1601 FILLER_18_397
*1602 FILLER_18_405
*1603 FILLER_18_413
*1604 FILLER_18_417
*1605 FILLER_18_421
*1606 FILLER_18_429
*1607 FILLER_18_437
*1608 FILLER_18_445
*1609 FILLER_18_45
*1610 FILLER_18_453
*1611 FILLER_18_461
*1612 FILLER_18_469
*1613 FILLER_18_473
*1614 FILLER_18_477
*1615 FILLER_18_485
*1616 FILLER_18_493
*1617 FILLER_18_501
*1618 FILLER_18_509
*1619 FILLER_18_513
*1620 FILLER_18_53
*1621 FILLER_18_61
*1622 FILLER_18_69
*1623 FILLER_18_77
*1624 FILLER_18_81
*1625 FILLER_18_85
*1626 FILLER_18_93
*1627 FILLER_19_105
*1628 FILLER_19_109
*1629 FILLER_19_11
*1630 FILLER_19_113
*1631 FILLER_19_121
*1632 FILLER_19_129
*1633 FILLER_19_137
*1634 FILLER_19_145
*1635 FILLER_19_153
*1636 FILLER_19_161
*1637 FILLER_19_165
*1638 FILLER_19_169
*1639 FILLER_19_177
*1640 FILLER_19_185
*1641 FILLER_19_19
*1642 FILLER_19_193
*1643 FILLER_19_201
*1644 FILLER_19_209
*1645 FILLER_19_217
*1646 FILLER_19_221
*1647 FILLER_19_225
*1648 FILLER_19_233
*1649 FILLER_19_241
*1650 FILLER_19_249
*1651 FILLER_19_257
*1652 FILLER_19_265
*1653 FILLER_19_27
*1654 FILLER_19_273
*1655 FILLER_19_277
*1656 FILLER_19_281
*1657 FILLER_19_289
*1658 FILLER_19_297
*1659 FILLER_19_3
*1660 FILLER_19_305
*1661 FILLER_19_313
*1662 FILLER_19_321
*1663 FILLER_19_329
*1664 FILLER_19_333
*1665 FILLER_19_337
*1666 FILLER_19_345
*1667 FILLER_19_35
*1668 FILLER_19_353
*1669 FILLER_19_361
*1670 FILLER_19_369
*1671 FILLER_19_377
*1672 FILLER_19_385
*1673 FILLER_19_389
*1674 FILLER_19_393
*1675 FILLER_19_401
*1676 FILLER_19_409
*1677 FILLER_19_417
*1678 FILLER_19_425
*1679 FILLER_19_43
*1680 FILLER_19_433
*1681 FILLER_19_441
*1682 FILLER_19_445
*1683 FILLER_19_449
*1684 FILLER_19_457
*1685 FILLER_19_465
*1686 FILLER_19_473
*1687 FILLER_19_481
*1688 FILLER_19_489
*1689 FILLER_19_497
*1690 FILLER_19_501
*1691 FILLER_19_505
*1692 FILLER_19_51
*1693 FILLER_19_513
*1694 FILLER_19_55
*1695 FILLER_19_57
*1696 FILLER_19_65
*1697 FILLER_19_73
*1698 FILLER_19_81
*1699 FILLER_19_89
*1700 FILLER_19_97
*1701 FILLER_1_102
*1702 FILLER_1_110
*1703 FILLER_1_113
*1704 FILLER_1_117
*1705 FILLER_1_124
*1706 FILLER_1_13
*1707 FILLER_1_131
*1708 FILLER_1_138
*1709 FILLER_1_145
*1710 FILLER_1_152
*1711 FILLER_1_159
*1712 FILLER_1_167
*1713 FILLER_1_172