*SPEF "ieee 1481-1999"
*DESIGN "sample"
*DATE "11:11:11 Fri 11 11, 1111"
*VENDOR "OpenRCX"
*PROGRAM "Parallel Extraction"
*VERSION "1.0"
*DESIGN_FLOW "NAME_SCOPE LOCAL" "PIN_CAP NONE"
*DIVIDER /
*DELIMITER :
*BUS_DELIMITER []
*T_UNIT 1 NS
*C_UNIT 1 PF
*R_UNIT 1 OHM
*L_UNIT 1 HENRY

*NAME_MAP
*1 A0[0]
*2 A0[1]
*3 A0[2]
*4 A0[3]
*5 A0[4]
*6 A0[5]
*7 A0[6]
*8 A0[7]
*9 A1[0]
*10 A1[1]
*11 A1[2]
*12 A1[3]
*13 A1[4]
*14 A1[5]
*15 A1[6]
*16 A1[7]
*17 ALU_Out1[0]
*18 ALU_Out1[1]
*19 ALU_Out1[2]
*20 ALU_Out1[3]
*21 ALU_Out1[4]
*22 ALU_Out1[5]
*23 ALU_Out1[6]
*24 ALU_Out1[7]
*25 ALU_Out2[0]
*26 ALU_Out2[1]
*27 ALU_Out2[2]
*28 ALU_Out2[3]
*29 ALU_Out2[4]
*30 ALU_Out2[5]
*31 ALU_Out2[6]
*32 ALU_Out2[7]
*33 ALU_Sel1[0]
*34 ALU_Sel1[1]
*35 ALU_Sel2[0]
*36 ALU_Sel2[1]
*37 B0[0]
*38 B0[1]
*39 B0[2]
*40 B0[3]
*41 B0[4]
*42 B0[5]
*43 B0[6]
*44 B0[7]
*45 B1[0]
*46 B1[1]
*47 B1[2]
*48 B1[3]
*49 B1[4]
*50 B1[5]
*51 B1[6]
*52 B1[7]
*53 CarryOut1
*54 CarryOut2
*55 analog_io[0]
*56 analog_io[10]
*57 analog_io[11]
*58 analog_io[12]
*59 analog_io[13]
*60 analog_io[14]
*61 analog_io[15]
*62 analog_io[16]
*63 analog_io[17]
*64 analog_io[18]
*65 analog_io[19]
*66 analog_io[1]
*67 analog_io[20]
*68 analog_io[21]
*69 analog_io[22]
*70 analog_io[23]
*71 analog_io[24]
*72 analog_io[25]
*73 analog_io[26]
*74 analog_io[27]
*75 analog_io[28]
*76 analog_io[2]
*77 analog_io[3]
*78 analog_io[4]
*79 analog_io[5]
*80 analog_io[6]
*81 analog_io[7]
*82 analog_io[8]
*83 analog_io[9]
*84 clk
*85 io_in[0]
*86 io_in[10]
*87 io_in[11]
*88 io_in[12]
*89 io_in[13]
*90 io_in[14]
*91 io_in[15]
*92 io_in[16]
*93 io_in[17]
*94 io_in[18]
*95 io_in[19]
*96 io_in[1]
*97 io_in[20]
*98 io_in[21]
*99 io_in[22]
*100 io_in[23]
*101 io_in[24]
*102 io_in[25]
*103 io_in[26]
*104 io_in[27]
*105 io_in[28]
*106 io_in[29]
*107 io_in[2]
*108 io_in[30]
*109 io_in[31]
*110 io_in[32]
*111 io_in[33]
*112 io_in[34]
*113 io_in[35]
*114 io_in[36]
*115 io_in[37]
*116 io_in[3]
*117 io_in[4]
*118 io_in[5]
*119 io_in[6]
*120 io_in[7]
*121 io_in[8]
*122 io_in[9]
*123 net131
*124 net141
*125 net142
*126 net143
*127 net144
*128 net145
*129 net146
*130 net147
*131 net148
*132 net149
*133 net150
*134 net132
*135 net151
*136 net152
*137 net153
*138 net154
*139 net155
*140 net156
*141 net157
*142 net158
*143 net159
*144 net160
*145 net133
*146 net161
*147 net162
*148 net163
*149 net164
*150 net165
*151 net166
*152 net167
*153 net168
*154 net134
*155 net135
*156 net136
*157 net137
*158 net138
*159 net139
*160 net140
*161 io_out[0]
*162 io_out[10]
*163 io_out[11]
*164 io_out[12]
*165 io_out[13]
*166 io_out[14]
*167 io_out[15]
*168 io_out[16]
*169 io_out[17]
*170 io_out[18]
*171 io_out[19]
*172 io_out[1]
*173 io_out[20]
*174 io_out[21]
*175 io_out[22]
*176 io_out[23]
*177 io_out[24]
*178 io_out[25]
*179 io_out[26]
*180 net169
*181 net170
*182 net171
*183 io_out[2]
*184 net172
*185 net173
*186 net174
*187 net175
*188 net176
*189 net177
*190 net178
*191 net179
*192 io_out[3]
*193 io_out[4]
*194 io_out[5]
*195 io_out[6]
*196 io_out[7]
*197 io_out[8]
*198 io_out[9]
*199 la_data_in[0]
*200 la_data_in[100]
*201 la_data_in[101]
*202 la_data_in[102]
*203 la_data_in[103]
*204 la_data_in[104]
*205 la_data_in[105]
*206 la_data_in[106]
*207 la_data_in[107]
*208 la_data_in[108]
*209 la_data_in[109]
*210 la_data_in[10]
*211 la_data_in[110]
*212 la_data_in[111]
*213 la_data_in[112]
*214 la_data_in[113]
*215 la_data_in[114]
*216 la_data_in[115]
*217 la_data_in[116]
*218 la_data_in[117]
*219 la_data_in[118]
*220 la_data_in[119]
*221 la_data_in[11]
*222 la_data_in[120]
*223 la_data_in[121]
*224 la_data_in[122]
*225 la_data_in[123]
*226 la_data_in[124]
*227 la_data_in[125]
*228 la_data_in[126]
*229 la_data_in[127]
*230 la_data_in[12]
*231 la_data_in[13]
*232 la_data_in[14]
*233 la_data_in[15]
*234 la_data_in[16]
*235 la_data_in[17]
*236 la_data_in[18]
*237 la_data_in[19]
*238 la_data_in[1]
*239 la_data_in[20]
*240 la_data_in[21]
*241 la_data_in[22]
*242 la_data_in[23]
*243 la_data_in[24]
*244 la_data_in[25]
*245 la_data_in[26]
*246 la_data_in[27]
*247 la_data_in[28]
*248 la_data_in[29]
*249 la_data_in[2]
*250 la_data_in[30]
*251 la_data_in[31]
*252 la_data_in[32]
*253 la_data_in[33]
*254 la_data_in[34]
*255 la_data_in[35]
*256 la_data_in[36]
*257 la_data_in[37]
*258 la_data_in[38]
*259 la_data_in[39]
*260 la_data_in[3]
*261 la_data_in[40]
*262 la_data_in[41]
*263 la_data_in[42]
*264 la_data_in[43]
*265 la_data_in[44]
*266 la_data_in[45]
*267 la_data_in[46]
*268 la_data_in[47]
*269 la_data_in[48]
*270 la_data_in[49]
*271 la_data_in[4]
*272 la_data_in[50]
*273 la_data_in[51]
*274 la_data_in[52]
*275 la_data_in[53]
*276 la_data_in[54]
*277 la_data_in[55]
*278 la_data_in[56]
*279 la_data_in[57]
*280 la_data_in[58]
*281 la_data_in[59]
*282 la_data_in[5]
*283 la_data_in[60]
*284 la_data_in[61]
*285 la_data_in[62]
*286 la_data_in[63]
*287 la_data_in[64]
*288 la_data_in[65]
*289 la_data_in[66]
*290 la_data_in[67]
*291 la_data_in[68]
*292 la_data_in[69]
*293 la_data_in[6]
*294 la_data_in[70]
*295 la_data_in[71]
*296 la_data_in[72]
*297 la_data_in[73]
*298 la_data_in[74]
*299 la_data_in[75]
*300 la_data_in[76]
*301 la_data_in[77]
*302 la_data_in[78]
*303 la_data_in[79]
*304 la_data_in[7]
*305 la_data_in[80]
*306 la_data_in[81]
*307 la_data_in[82]
*308 la_data_in[83]
*309 la_data_in[84]
*310 la_data_in[85]
*311 la_data_in[86]
*312 la_data_in[87]
*313 la_data_in[88]
*314 la_data_in[89]
*315 la_data_in[8]
*316 la_data_in[90]
*317 la_data_in[91]
*318 la_data_in[92]
*319 la_data_in[93]
*320 la_data_in[94]
*321 la_data_in[95]
*322 la_data_in[96]
*323 la_data_in[97]
*324 la_data_in[98]
*325 la_data_in[99]
*326 la_data_in[9]
*327 net180
*328 net280
*329 net281
*330 net282
*331 net283
*332 net284
*333 net285
*334 net286
*335 net287
*336 net288
*337 net289
*338 net190
*339 net290
*340 net291
*341 net292
*342 net293
*343 net294
*344 net295
*345 net296
*346 net297
*347 net298
*348 net299
*349 net191
*350 net300
*351 net301
*352 net302
*353 net303
*354 net304
*355 net305
*356 net306
*357 net307
*358 net192
*359 net193
*360 net194
*361 net195
*362 net196
*363 net197
*364 net198
*365 net199
*366 net181
*367 net200
*368 net201
*369 net202
*370 net203
*371 net204
*372 net205
*373 net206
*374 net207
*375 net208
*376 net209
*377 net182
*378 net210
*379 net211
*380 net212
*381 net213
*382 net214
*383 net215
*384 net216
*385 net217
*386 net218
*387 net219
*388 net183
*389 net220
*390 net221
*391 net222
*392 net223
*393 net224
*394 net225
*395 net226
*396 net227
*397 net228
*398 net229
*399 net184
*400 net230
*401 net231
*402 net232
*403 net233
*404 net234
*405 net235
*406 net236
*407 net237
*408 net238
*409 net239
*410 net185
*411 net240
*412 net241
*413 net242
*414 net243
*415 net244
*416 net245
*417 net246
*418 net247
*419 net248
*420 net249
*421 net186
*422 net250
*423 net251
*424 net252
*425 net253
*426 net254
*427 net255
*428 net256
*429 net257
*430 net258
*431 net259
*432 net187
*433 net260
*434 net261
*435 net262
*436 net263
*437 net264
*438 net265
*439 net266
*440 net267
*441 net268
*442 net269
*443 net188
*444 net270
*445 net271
*446 net272
*447 net273
*448 net274
*449 net275
*450 net276
*451 net277
*452 net278
*453 net279
*454 net189
*455 la_oenb[0]
*456 la_oenb[100]
*457 la_oenb[101]
*458 la_oenb[102]
*459 la_oenb[103]
*460 la_oenb[104]
*461 la_oenb[105]
*462 la_oenb[106]
*463 la_oenb[107]
*464 la_oenb[108]
*465 la_oenb[109]
*466 la_oenb[10]
*467 la_oenb[110]
*468 la_oenb[111]
*469 la_oenb[112]
*470 la_oenb[113]
*471 la_oenb[114]
*472 la_oenb[115]
*473 la_oenb[116]
*474 la_oenb[117]
*475 la_oenb[118]
*476 la_oenb[119]
*477 la_oenb[11]
*478 la_oenb[120]
*479 la_oenb[121]
*480 la_oenb[122]
*481 la_oenb[123]
*482 la_oenb[124]
*483 la_oenb[125]
*484 la_oenb[126]
*485 la_oenb[127]
*486 la_oenb[12]
*487 la_oenb[13]
*488 la_oenb[14]
*489 la_oenb[15]
*490 la_oenb[16]
*491 la_oenb[17]
*492 la_oenb[18]
*493 la_oenb[19]
*494 la_oenb[1]
*495 la_oenb[20]
*496 la_oenb[21]
*497 la_oenb[22]
*498 la_oenb[23]
*499 la_oenb[24]
*500 la_oenb[25]
*501 la_oenb[26]
*502 la_oenb[27]
*503 la_oenb[28]
*504 la_oenb[29]
*505 la_oenb[2]
*506 la_oenb[30]
*507 la_oenb[31]
*508 la_oenb[32]
*509 la_oenb[33]
*510 la_oenb[34]
*511 la_oenb[35]
*512 la_oenb[36]
*513 la_oenb[37]
*514 la_oenb[38]
*515 la_oenb[39]
*516 la_oenb[3]
*517 la_oenb[40]
*518 la_oenb[41]
*519 la_oenb[42]
*520 la_oenb[43]
*521 la_oenb[44]
*522 la_oenb[45]
*523 la_oenb[46]
*524 la_oenb[47]
*525 la_oenb[48]
*526 la_oenb[49]
*527 la_oenb[4]
*528 la_oenb[50]
*529 la_oenb[51]
*530 la_oenb[52]
*531 la_oenb[53]
*532 la_oenb[54]
*533 la_oenb[55]
*534 la_oenb[56]
*535 la_oenb[57]
*536 la_oenb[58]
*537 la_oenb[59]
*538 la_oenb[5]
*539 la_oenb[60]
*540 la_oenb[61]
*541 la_oenb[62]
*542 la_oenb[63]
*543 la_oenb[64]
*544 la_oenb[65]
*545 la_oenb[66]
*546 la_oenb[67]
*547 la_oenb[68]
*548 la_oenb[69]
*549 la_oenb[6]
*550 la_oenb[70]
*551 la_oenb[71]
*552 la_oenb[72]
*553 la_oenb[73]
*554 la_oenb[74]
*555 la_oenb[75]
*556 la_oenb[76]
*557 la_oenb[77]
*558 la_oenb[78]
*559 la_oenb[79]
*560 la_oenb[7]
*561 la_oenb[80]
*562 la_oenb[81]
*563 la_oenb[82]
*564 la_oenb[83]
*565 la_oenb[84]
*566 la_oenb[85]
*567 la_oenb[86]
*568 la_oenb[87]
*569 la_oenb[88]
*570 la_oenb[89]
*571 la_oenb[8]
*572 la_oenb[90]
*573 la_oenb[91]
*574 la_oenb[92]
*575 la_oenb[93]
*576 la_oenb[94]
*577 la_oenb[95]
*578 la_oenb[96]
*579 la_oenb[97]
*580 la_oenb[98]
*581 la_oenb[99]
*582 la_oenb[9]
*583 user_clock2
*584 net308
*585 net309
*586 net310
*589 wb_clk_i
*590 wb_rst_i
*591 net311
*592 wbs_adr_i[0]
*593 wbs_adr_i[10]
*594 wbs_adr_i[11]
*595 wbs_adr_i[12]
*596 wbs_adr_i[13]
*597 wbs_adr_i[14]
*598 wbs_adr_i[15]
*599 wbs_adr_i[16]
*600 wbs_adr_i[17]
*601 wbs_adr_i[18]
*602 wbs_adr_i[19]
*603 wbs_adr_i[1]
*604 wbs_adr_i[20]
*605 wbs_adr_i[21]
*606 wbs_adr_i[22]
*607 wbs_adr_i[23]
*608 wbs_adr_i[24]
*609 wbs_adr_i[25]
*610 wbs_adr_i[26]
*611 wbs_adr_i[27]
*612 wbs_adr_i[28]
*613 wbs_adr_i[29]
*614 wbs_adr_i[2]
*615 wbs_adr_i[30]
*616 wbs_adr_i[31]
*617 wbs_adr_i[3]
*618 wbs_adr_i[4]
*619 wbs_adr_i[5]
*620 wbs_adr_i[6]
*621 wbs_adr_i[7]
*622 wbs_adr_i[8]
*623 wbs_adr_i[9]
*624 wbs_cyc_i
*625 wbs_dat_i[0]
*626 wbs_dat_i[10]
*627 wbs_dat_i[11]
*628 wbs_dat_i[12]
*629 wbs_dat_i[13]
*630 wbs_dat_i[14]
*631 wbs_dat_i[15]
*632 wbs_dat_i[16]
*633 wbs_dat_i[17]
*634 wbs_dat_i[18]
*635 wbs_dat_i[19]
*636 wbs_dat_i[1]
*637 wbs_dat_i[20]
*638 wbs_dat_i[21]
*639 wbs_dat_i[22]
*640 wbs_dat_i[23]
*641 wbs_dat_i[24]
*642 wbs_dat_i[25]
*643 wbs_dat_i[26]
*644 wbs_dat_i[27]
*645 wbs_dat_i[28]
*646 wbs_dat_i[29]
*647 wbs_dat_i[2]
*648 wbs_dat_i[30]
*649 wbs_dat_i[31]
*650 wbs_dat_i[3]
*651 wbs_dat_i[4]
*652 wbs_dat_i[5]
*653 wbs_dat_i[6]
*654 wbs_dat_i[7]
*655 wbs_dat_i[8]
*656 wbs_dat_i[9]
*657 net312
*658 net322
*659 net323
*660 net324
*661 net325
*662 net326
*663 net327
*664 net328
*665 net329
*666 net330
*667 net331
*668 net313
*669 net332
*670 net333
*671 net334
*672 net335
*673 net336
*674 net337
*675 net338
*676 net339
*677 net340
*678 net341
*679 net314
*680 net342
*681 net343
*682 net315
*683 net316
*684 net317
*685 net318
*686 net319
*687 net320
*688 net321
*689 wbs_sel_i[0]
*690 wbs_sel_i[1]
*691 wbs_sel_i[2]
*692 wbs_sel_i[3]
*693 wbs_stb_i
*694 wbs_we_i
*695 x[0]
*696 x[1]
*697 x[2]
*698 x[3]
*699 x[4]
*700 x[5]
*701 x[6]
*702 x[7]
*703 y
*704 _000_
*705 _001_
*706 _002_
*707 _003_
*708 _004_
*709 _005_
*710 _006_
*711 _007_
*712 _008_
*713 _009_
*714 _010_
*715 _011_
*716 _012_
*717 _013_
*718 _014_
*719 _015_
*720 _016_
*721 _017_
*722 _018_
*723 _019_
*724 _020_
*725 _021_
*726 _022_
*727 _023_
*728 _024_
*729 _025_
*730 _026_
*731 _027_
*732 _028_
*733 _029_
*734 _030_
*735 _031_
*736 _032_
*737 _033_
*738 _034_
*739 _035_
*740 _036_
*741 _037_
*742 _038_
*743 _039_
*744 _040_
*745 _041_
*746 _042_
*747 _043_
*748 _044_
*749 _045_
*750 _046_
*751 _047_
*752 _048_
*753 _049_
*754 _050_
*755 _051_
*756 _052_
*757 _053_
*758 _054_
*759 _055_
*760 _056_
*761 _057_
*762 _058_
*763 _059_
*764 _060_
*765 _061_
*766 _062_
*767 _063_
*768 _064_
*769 _065_
*770 _066_
*771 _067_
*772 _068_
*773 _069_
*774 _070_
*775 _071_
*776 _072_
*777 _073_
*778 _074_
*779 _075_
*780 _076_
*781 _077_
*782 _078_
*783 _079_
*784 _080_
*785 _081_
*786 _082_
*787 _083_
*788 _084_
*789 _085_
*790 _086_
*791 _087_
*792 _088_
*793 _089_
*794 _090_
*795 _091_
*796 _092_
*797 _093_
*798 _094_
*799 _095_
*800 _096_
*801 _097_
*802 _098_
*803 _099_
*804 _100_
*805 _101_
*806 _102_
*807 _103_
*808 _104_
*809 _105_
*810 _106_
*811 _107_
*812 _108_
*813 _109_
*814 _110_
*815 _111_
*816 _112_
*817 _113_
*818 _114_
*819 _115_
*820 _116_
*821 _117_
*822 _118_
*823 _119_
*824 _120_
*825 _121_
*826 _122_
*827 _123_
*828 _124_
*829 _125_
*830 _126_
*831 _127_
*832 _128_
*833 _129_
*834 _130_
*835 _131_
*836 _132_
*837 _133_
*838 _134_
*839 _135_
*840 _136_
*841 _137_
*842 _138_
*843 _139_
*844 _140_
*845 _141_
*846 _142_
*847 _143_
*848 _144_
*849 _145_
*850 _146_
*851 _147_
*852 _148_
*853 _149_
*854 _150_
*855 _151_
*856 _152_
*857 _153_
*858 _154_
*859 _155_
*860 _156_
*861 _157_
*862 _158_
*863 _159_
*864 _160_
*865 _161_
*866 _162_
*867 _163_
*868 _164_
*869 _165_
*870 _166_
*871 _167_
*872 _168_
*873 _169_
*874 _170_
*875 _171_
*876 _172_
*877 _173_
*878 _174_
*879 _175_
*880 _176_
*881 _177_
*882 _178_
*883 _179_
*884 _180_
*885 _181_
*886 _182_
*887 _183_
*888 _184_
*889 _185_
*890 _186_
*891 _187_
*892 _188_
*893 _189_
*894 _190_
*895 _191_
*896 _192_
*897 _193_
*898 _194_
*899 _195_
*900 _196_
*901 _197_
*902 net1
*903 net10
*904 net100
*905 net101
*906 net102
*907 net103
*908 net104
*909 net105
*910 net106
*911 net107
*912 net108
*913 net109
*914 net11
*915 net110
*916 net111
*917 net112
*918 net113
*919 net114
*920 net115
*921 net116
*922 net117
*923 net118
*924 net119
*925 net12
*926 net120
*927 net121
*928 net122
*929 net123
*930 net124
*931 net125
*932 net126
*933 net127
*934 net128
*935 net129
*936 net13
*937 net130
*938 net14
*939 net15
*940 net16
*941 net17
*942 net18
*943 net19
*944 net2
*945 net20
*946 net21
*947 net22
*948 net23
*949 net24
*950 net25
*951 net26
*952 net27
*953 net28
*954 net29
*955 net3
*956 net30
*957 net31
*958 net32
*959 net33
*960 net34
*961 net35
*962 net36
*963 net37
*964 net38
*965 net39
*966 net4
*967 net40
*968 net41
*969 net42
*970 net43
*971 net44
*972 net45
*973 net46
*974 net47
*975 net48
*976 net49
*977 net5
*978 net50
*979 net51
*980 net52
*981 net53
*982 net54
*983 net55
*984 net56
*985 net57
*986 net58
*987 net59
*988 net6
*989 net60
*990 net61
*991 net62
*992 net63
*993 net64
*994 net65
*995 net66
*996 net67
*997 net68
*998 net69
*999 net7
*1000 net70
*1001 net71
*1002 net72
*1003 net73
*1004 net74
*1005 net75
*1006 net76
*1007 net77
*1008 net78
*1009 net79
*1010 net8
*1011 net80
*1012 net81
*1013 net82
*1014 net83
*1015 net84
*1016 net85
*1017 net86
*1018 net87
*1019 net88
*1020 net89
*1021 net9
*1022 net90
*1023 net91
*1024 net92
*1025 net93
*1026 net94
*1027 net95
*1028 net96
*1029 net97
*1030 net98
*1031 net99
*1032 ANTENNA__198__A
*1033 ANTENNA__200__A
*1034 ANTENNA__200__B_N
*1035 ANTENNA__202__A
*1036 ANTENNA__203__A
*1037 ANTENNA__203__B
*1038 ANTENNA__203__C
*1039 ANTENNA__203__D
*1040 ANTENNA__204__A
*1041 ANTENNA__204__C
*1042 ANTENNA__206__A
*1043 ANTENNA__207__A
*1044 ANTENNA__208__A
*1045 ANTENNA__209__A2
*1046 ANTENNA__210__A
*1047 ANTENNA__211__A
*1048 ANTENNA__212__A
*1049 ANTENNA__215__A
*1050 ANTENNA__217__B1
*1051 ANTENNA__218__A
*1052 ANTENNA__221__A
*1053 ANTENNA__222__A
*1054 ANTENNA__222__C
*1055 ANTENNA__223__A_N
*1056 ANTENNA__224__B1_N
*1057 ANTENNA__225__B1
*1058 ANTENNA__227__A1
*1059 ANTENNA__228__A
*1060 ANTENNA__229__A
*1061 ANTENNA__230__A
*1062 ANTENNA__231__A
*1063 ANTENNA__232__A
*1064 ANTENNA__234__A
*1065 ANTENNA__235__B1
*1066 ANTENNA__237__A
*1067 ANTENNA__238__A1
*1068 ANTENNA__240__A1
*1069 ANTENNA__241__A
*1070 ANTENNA__242__A
*1071 ANTENNA__243__A
*1072 ANTENNA__250__A
*1073 ANTENNA__251__A
*1074 ANTENNA__253__A1
*1075 ANTENNA__253__A2
*1076 ANTENNA__254__A1
*1077 ANTENNA__254__A2
*1078 ANTENNA__258__A
*1079 ANTENNA__259__A
*1080 ANTENNA__261__A1
*1081 ANTENNA__265__A1_N
*1082 ANTENNA__266__A1
*1083 ANTENNA__267__A1
*1084 ANTENNA__269__A
*1085 ANTENNA__270__A
*1086 ANTENNA__272__A
*1087 ANTENNA__273__A
*1088 ANTENNA__274__A1_N
*1089 ANTENNA__275__A1
*1090 ANTENNA__276__A1
*1091 ANTENNA__278__A
*1092 ANTENNA__278__B
*1093 ANTENNA__279__A
*1094 ANTENNA__282__A2
*1095 ANTENNA__283__A2
*1096 ANTENNA__286__A
*1097 ANTENNA__286__B_N
*1098 ANTENNA__287__A
*1099 ANTENNA__287__B
*1100 ANTENNA__289__B1
*1101 ANTENNA__290__B1
*1102 ANTENNA__291__A
*1103 ANTENNA__293__A
*1104 ANTENNA__296__A2
*1105 ANTENNA__296__B1
*1106 ANTENNA__297__A2
*1107 ANTENNA__300__A
*1108 ANTENNA__300__B
*1109 ANTENNA__304__A2
*1110 ANTENNA__304__B1
*1111 ANTENNA__305__A2
*1112 ANTENNA__310__A
*1113 ANTENNA__310__B
*1114 ANTENNA__311__B1_N
*1115 ANTENNA__312__A_N
*1116 ANTENNA__312__B
*1117 ANTENNA__313__A
*1118 ANTENNA__314__B1
*1119 ANTENNA__315__A
*1120 ANTENNA__319__A
*1121 ANTENNA__320__A2
*1122 ANTENNA__320__B1
*1123 ANTENNA__321__B
*1124 ANTENNA__325__A
*1125 ANTENNA__325__B
*1126 ANTENNA__326__A1
*1127 ANTENNA__329__A2
*1128 ANTENNA__329__B1
*1129 ANTENNA__330__A2
*1130 ANTENNA__333__A
*1131 ANTENNA__333__B
*1132 ANTENNA__333__C
*1133 ANTENNA__334__A
*1134 ANTENNA__336__A
*1135 ANTENNA__337__B1
*1136 ANTENNA__338__A
*1137 ANTENNA__342__A2
*1138 ANTENNA__343__A2
*1139 ANTENNA__346__A
*1140 ANTENNA__346__B
*1141 ANTENNA__349__A1
*1142 ANTENNA__350__A1
*1143 ANTENNA__353__A
*1144 ANTENNA__354__A
*1145 ANTENNA__355__A
*1146 ANTENNA__361__A1
*1147 ANTENNA__361__A2
*1148 ANTENNA__362__A1
*1149 ANTENNA__362__A2
*1150 ANTENNA__365__A
*1151 ANTENNA__365__B
*1152 ANTENNA__368__A2
*1153 ANTENNA__368__B1
*1154 ANTENNA__369__A2
*1155 ANTENNA__372__A2
*1156 ANTENNA__373__A
*1157 ANTENNA__374__A
*1158 ANTENNA__375__A
*1159 ANTENNA__379__A2
*1160 ANTENNA__379__B1
*1161 ANTENNA__380__A2
*1162 ANTENNA__382__A
*1163 ANTENNA__382__B
*1164 ANTENNA__383__A
*1165 ANTENNA__383__B
*1166 ANTENNA__384__A1
*1167 ANTENNA__384__A2
*1168 ANTENNA__389__A2
*1169 ANTENNA__389__A3
*1170 ANTENNA__390__A
*1171 ANTENNA__391__A
*1172 ANTENNA__392__B1
*1173 ANTENNA__393__A
*1174 ANTENNA__395__A1
*1175 ANTENNA__399__A2
*1176 ANTENNA__399__B1
*1177 ANTENNA__400__A2
*1178 ANTENNA__403__A
*1179 ANTENNA__403__B
*1180 ANTENNA__405__A
*1181 ANTENNA__406__A
*1182 ANTENNA__407__A
*1183 ANTENNA__410__A2
*1184 ANTENNA__410__B1
*1185 ANTENNA__411__A2
*1186 ANTENNA__414__A
*1187 ANTENNA__414__B
*1188 ANTENNA__415__A
*1189 ANTENNA__416__A1
*1190 ANTENNA__422__A
*1191 ANTENNA__422__B
*1192 ANTENNA__636__A
*1193 ANTENNA__637__A
*1194 ANTENNA__638__A
*1195 ANTENNA__639__A
*1196 ANTENNA__640__A
*1197 ANTENNA__641__A
*1198 ANTENNA__642__A
*1199 ANTENNA__643__A
*1200 ANTENNA__644__A
*1201 ANTENNA__645__A
*1202 ANTENNA__646__A
*1203 ANTENNA__647__A
*1204 ANTENNA__648__A
*1205 ANTENNA__649__A
*1206 ANTENNA__650__A
*1207 ANTENNA__651__A
*1208 ANTENNA__652__A
*1209 ANTENNA__653__A
*1210 ANTENNA__654__A
*1211 ANTENNA__655__A
*1212 ANTENNA__656__A
*1213 ANTENNA__657__A
*1214 ANTENNA__658__A
*1215 ANTENNA__659__A
*1216 ANTENNA__660__A
*1217 ANTENNA__661__A
*1218 ANTENNA__662__A
*1219 ANTENNA__663__A
*1220 ANTENNA__664__A
*1221 ANTENNA__665__A
*1222 ANTENNA__666__A
*1223 ANTENNA__667__A
*1224 ANTENNA__668__A
*1225 ANTENNA__669__A
*1226 ANTENNA__670__A
*1227 ANTENNA__671__A
*1228 ANTENNA__672__A
*1229 ANTENNA__673__A
*1230 ANTENNA__674__A
*1231 ANTENNA__675__A
*1232 ANTENNA__676__A
*1233 ANTENNA__677__A
*1234 ANTENNA__678__A
*1235 ANTENNA__679__A
*1236 ANTENNA__680__A
*1237 ANTENNA__681__A
*1238 ANTENNA__682__A
*1239 ANTENNA__683__A
*1240 ANTENNA__684__A
*1241 ANTENNA__685__A
*1242 ANTENNA__686__A
*1243 ANTENNA__687__A
*1244 ANTENNA__688__A
*1245 ANTENNA__689__A
*1246 ANTENNA__690__A
*1247 ANTENNA__691__A
*1248 ANTENNA__692__A
*1249 ANTENNA__693__A
*1250 ANTENNA__694__A
*1251 ANTENNA__695__A
*1252 ANTENNA__696__A
*1253 ANTENNA__697__A
*1254 ANTENNA__698__A
*1255 ANTENNA__699__A
*1256 ANTENNA_input10_A
*1257 ANTENNA_input11_A
*1258 ANTENNA_input12_A
*1259 ANTENNA_input13_A
*1260 ANTENNA_input14_A
*1261 ANTENNA_input15_A
*1262 ANTENNA_input16_A
*1263 ANTENNA_input17_A
*1264 ANTENNA_input18_A
*1265 ANTENNA_input19_A
*1266 ANTENNA_input1_A
*1267 ANTENNA_input20_A
*1268 ANTENNA_input21_A
*1269 ANTENNA_input22_A
*1270 ANTENNA_input23_A
*1271 ANTENNA_input24_A
*1272 ANTENNA_input25_A
*1273 ANTENNA_input26_A
*1274 ANTENNA_input27_A
*1275 ANTENNA_input28_A
*1276 ANTENNA_input29_A
*1277 ANTENNA_input2_A
*1278 ANTENNA_input30_A
*1279 ANTENNA_input31_A
*1280 ANTENNA_input32_A
*1281 ANTENNA_input33_A
*1282 ANTENNA_input34_A
*1283 ANTENNA_input35_A
*1284 ANTENNA_input36_A
*1285 ANTENNA_input37_A
*1286 ANTENNA_input38_A
*1287 ANTENNA_input39_A
*1288 ANTENNA_input3_A
*1289 ANTENNA_input40_A
*1290 ANTENNA_input41_A
*1291 ANTENNA_input42_A
*1292 ANTENNA_input43_A
*1293 ANTENNA_input44_A
*1294 ANTENNA_input45_A
*1295 ANTENNA_input46_A
*1296 ANTENNA_input47_A
*1297 ANTENNA_input48_A
*1298 ANTENNA_input49_A
*1299 ANTENNA_input4_A
*1300 ANTENNA_input50_A
*1301 ANTENNA_input51_A
*1302 ANTENNA_input52_A
*1303 ANTENNA_input53_A
*1304 ANTENNA_input54_A
*1305 ANTENNA_input55_A
*1306 ANTENNA_input56_A
*1307 ANTENNA_input57_A
*1308 ANTENNA_input58_A
*1309 ANTENNA_input59_A
*1310 ANTENNA_input5_A
*1311 ANTENNA_input60_A
*1312 ANTENNA_input61_A
*1313 ANTENNA_input62_A
*1314 ANTENNA_input63_A
*1315 ANTENNA_input64_A
*1316 ANTENNA_input65_A
*1317 ANTENNA_input66_A
*1318 ANTENNA_input67_A
*1319 ANTENNA_input68_A
*1320 ANTENNA_input69_A
*1321 ANTENNA_input6_A
*1322 ANTENNA_input70_A
*1323 ANTENNA_input71_A
*1324 ANTENNA_input72_A
*1325 ANTENNA_input73_A
*1326 ANTENNA_input7_A
*1327 ANTENNA_input8_A
*1328 ANTENNA_input9_A
*1329 ANTENNA_output100_A
*1330 ANTENNA_output101_A
*1331 ANTENNA_output102_A
*1332 ANTENNA_output103_A
*1333 ANTENNA_output104_A
*1334 ANTENNA_output105_A
*1335 ANTENNA_output106_A
*1336 ANTENNA_output107_A
*1337 ANTENNA_output108_A
*1338 ANTENNA_output109_A
*1339 ANTENNA_output110_A
*1340 ANTENNA_output111_A
*1341 ANTENNA_output112_A
*1342 ANTENNA_output113_A
*1343 ANTENNA_output114_A
*1344 ANTENNA_output115_A
*1345 ANTENNA_output116_A
*1346 ANTENNA_output117_A
*1347 ANTENNA_output118_A
*1348 ANTENNA_output119_A
*1349 ANTENNA_output120_A
*1350 ANTENNA_output121_A
*1351 ANTENNA_output122_A
*1352 ANTENNA_output123_A
*1353 ANTENNA_output124_A
*1354 ANTENNA_output125_A
*1355 ANTENNA_output126_A
*1356 ANTENNA_output127_A
*1357 ANTENNA_output74_A
*1358 ANTENNA_output75_A
*1359 ANTENNA_output76_A
*1360 ANTENNA_output77_A
*1361 ANTENNA_output78_A
*1362 ANTENNA_output79_A
*1363 ANTENNA_output80_A
*1364 ANTENNA_output81_A
*1365 ANTENNA_output82_A
*1366 ANTENNA_output83_A
*1367 ANTENNA_output84_A
*1368 ANTENNA_output85_A
*1369 ANTENNA_output86_A
*1370 ANTENNA_output87_A
*1371 ANTENNA_output88_A
*1372 ANTENNA_output89_A
*1373 ANTENNA_output90_A
*1374 ANTENNA_output91_A
*1375 ANTENNA_output92_A
*1376 ANTENNA_output93_A
*1377 ANTENNA_output94_A
*1378 ANTENNA_output95_A
*1379 ANTENNA_output96_A
*1380 ANTENNA_output97_A
*1381 ANTENNA_output99_A
*1382 ANTENNA_repeater128_A
*1383 ANTENNA_repeater129_A
*1384 ANTENNA_repeater130_A
*1385 FILLER_0_1003
*1386 FILLER_0_1011
*1387 FILLER_0_1015
*1388 FILLER_0_1019
*1389 FILLER_0_1021
*1390 FILLER_0_1026
*1391 FILLER_0_103
*1392 FILLER_0_1034
*1393 FILLER_0_1038
*1394 FILLER_0_1054
*1395 FILLER_0_1061
*1396 FILLER_0_107
*1397 FILLER_0_1072
*1398 FILLER_0_1084
*1399 FILLER_0_1095
*1400 FILLER_0_1106
*1401 FILLER_0_1111
*1402 FILLER_0_1117
*1403 FILLER_0_1125
*1404 FILLER_0_1129
*1405 FILLER_0_1137
*1406 FILLER_0_1144
*1407 FILLER_0_1148
*1408 FILLER_0_1152
*1409 FILLER_0_1163
*1410 FILLER_0_1169
*1411 FILLER_0_1174
*1412 FILLER_0_1182
*1413 FILLER_0_1186
*1414 FILLER_0_119
*1415 FILLER_0_1198
*1416 FILLER_0_1204
*1417 FILLER_0_1211
*1418 FILLER_0_1220
*1419 FILLER_0_1228
*1420 FILLER_0_1234
*1421 FILLER_0_124
*1422 FILLER_0_1243
*1423 FILLER_0_1254
*1424 FILLER_0_1261
*1425 FILLER_0_1266
*1426 FILLER_0_1277
*1427 FILLER_0_1289
*1428 FILLER_0_1294
*1429 FILLER_0_1301
*1430 FILLER_0_1307
*1431 FILLER_0_131
*1432 FILLER_0_1311
*1433 FILLER_0_1319
*1434 FILLER_0_1324
*1435 FILLER_0_1330
*1436 FILLER_0_1334
*1437 FILLER_0_1345
*1438 FILLER_0_1349
*1439 FILLER_0_1351
*1440 FILLER_0_1357
*1441 FILLER_0_1368
*1442 FILLER_0_137
*1443 FILLER_0_1384
*1444 FILLER_0_1391
*1445 FILLER_0_1402
*1446 FILLER_0_141
*1447 FILLER_0_1414
*1448 FILLER_0_1425
*1449 FILLER_0_1437
*1450 FILLER_0_1444
*1451 FILLER_0_1451
*1452 FILLER_0_1455
*1453 FILLER_0_1459
*1454 FILLER_0_1467
*1455 FILLER_0_1474
*1456 FILLER_0_1478
*1457 FILLER_0_1482
*1458 FILLER_0_149
*1459 FILLER_0_1490
*1460 FILLER_0_1494
*1461 FILLER_0_1501
*1462 FILLER_0_1505
*1463 FILLER_0_1516
*1464 FILLER_0_1528
*1465 FILLER_0_1534
*1466 FILLER_0_154
*1467 FILLER_0_1541
*1468 FILLER_0_1547
*1469 FILLER_0_1551
*1470 FILLER_0_1559
*1471 FILLER_0_1564
*1472 FILLER_0_1573
*1473 FILLER_0_1581
*1474 FILLER_0_1585
*1475 FILLER_0_1589
*1476 FILLER_0_1591
*1477 FILLER_0_1596
*1478 FILLER_0_160
*1479 FILLER_0_1604
*1480 FILLER_0_1608
*1481 FILLER_0_1624
*1482 FILLER_0_1631
*1483 FILLER_0_164
*1484 FILLER_0_1642
*1485 FILLER_0_1654
*1486 FILLER_0_1665
*1487 FILLER_0_1676
*1488 FILLER_0_1681
*1489 FILLER_0_1687
*1490 FILLER_0_1695
*1491 FILLER_0_1699
*1492 FILLER_0_1707
*1493 FILLER_0_1714
*1494 FILLER_0_1718
*1495 FILLER_0_1722
*1496 FILLER_0_1733
*1497 FILLER_0_1739
*1498 FILLER_0_1744
*1499 FILLER_0_175
*1500 FILLER_0_1752
*1501 FILLER_0_1756
*1502 FILLER_0_1768
*1503 FILLER_0_1774
*1504 FILLER_0_1781
*1505 FILLER_0_179
*1506 FILLER_0_1790
*1507 FILLER_0_1798
*1508 FILLER_0_18
*1509 FILLER_0_1804
*1510 FILLER_0_181
*1511 FILLER_0_1813
*1512 FILLER_0_1824
*1513 FILLER_0_1831
*1514 FILLER_0_1836
*1515 FILLER_0_1847
*1516 FILLER_0_1851
*1517 FILLER_0_1856
*1518 FILLER_0_186
*1519 FILLER_0_1865
*1520 FILLER_0_1869
*1521 FILLER_0_1886
*1522 FILLER_0_1907
*1523 FILLER_0_1915
*1524 FILLER_0_1919
*1525 FILLER_0_1925
*1526 FILLER_0_194
*1527 FILLER_0_198
*1528 FILLER_0_214
*1529 FILLER_0_221
*1530 FILLER_0_23
*1531 FILLER_0_232
*1532 FILLER_0_244
*1533 FILLER_0_255
*1534 FILLER_0_266
*1535 FILLER_0_271
*1536 FILLER_0_278
*1537 FILLER_0_289
*1538 FILLER_0_29
*1539 FILLER_0_297
*1540 FILLER_0_304
*1541 FILLER_0_308
*1542 FILLER_0_31
*1543 FILLER_0_312
*1544 FILLER_0_323
*1545 FILLER_0_329
*1546 FILLER_0_331
*1547 FILLER_0_335
*1548 FILLER_0_346
*1549 FILLER_0_358
*1550 FILLER_0_364
*1551 FILLER_0_371
*1552 FILLER_0_38
*1553 FILLER_0_380
*1554 FILLER_0_388
*1555 FILLER_0_391
*1556 FILLER_0_395
*1557 FILLER_0_399
*1558 FILLER_0_407
*1559 FILLER_0_411
*1560 FILLER_0_419
*1561 FILLER_0_424
*1562 FILLER_0_433
*1563 FILLER_0_441
*1564 FILLER_0_445
*1565 FILLER_0_449
*1566 FILLER_0_451
*1567 FILLER_0_456
*1568 FILLER_0_464
*1569 FILLER_0_468
*1570 FILLER_0_484
*1571 FILLER_0_491
*1572 FILLER_0_502
*1573 FILLER_0_514
*1574 FILLER_0_525
*1575 FILLER_0_53
*1576 FILLER_0_536
*1577 FILLER_0_541
*1578 FILLER_0_547
*1579 FILLER_0_555
*1580 FILLER_0_559
*1581 FILLER_0_567
*1582 FILLER_0_574
*1583 FILLER_0_578
*1584 FILLER_0_582
*1585 FILLER_0_59
*1586 FILLER_0_593
*1587 FILLER_0_599
*1588 FILLER_0_6
*1589 FILLER_0_604
*1590 FILLER_0_61
*1591 FILLER_0_612
*1592 FILLER_0_616
*1593 FILLER_0_628
*1594 FILLER_0_634
*1595 FILLER_0_641
*1596 FILLER_0_65
*1597 FILLER_0_650
*1598 FILLER_0_658
*1599 FILLER_0_664
*1600 FILLER_0_673
*1601 FILLER_0_684
*1602 FILLER_0_69
*1603 FILLER_0_691
*1604 FILLER_0_696
*1605 FILLER_0_707
*1606 FILLER_0_719
*1607 FILLER_0_724
*1608 FILLER_0_731
*1609 FILLER_0_737
*1610 FILLER_0_741
*1611 FILLER_0_749
*1612 FILLER_0_754
*1613 FILLER_0_760
*1614 FILLER_0_764
*1615 FILLER_0_775
*1616 FILLER_0_779
*1617 FILLER_0_781
*1618 FILLER_0_787
*1619 FILLER_0_798
*1620 FILLER_0_814
*1621 FILLER_0_821
*1622 FILLER_0_832
*1623 FILLER_0_84
*1624 FILLER_0_844
*1625 FILLER_0_855
*1626 FILLER_0_867
*1627 FILLER_0_874
*1628 FILLER_0_881
*1629 FILLER_0_885
*1630 FILLER_0_889
*1631 FILLER_0_897
*1632 FILLER_0_904
*1633 FILLER_0_908
*1634 FILLER_0_91
*1635 FILLER_0_912
*1636 FILLER_0_920
*1637 FILLER_0_924
*1638 FILLER_0_931
*1639 FILLER_0_935
*1640 FILLER_0_946
*1641 FILLER_0_95
*1642 FILLER_0_958
*1643 FILLER_0_964
*1644 FILLER_0_971
*1645 FILLER_0_977
*1646 FILLER_0_981
*1647 FILLER_0_989
*1648 FILLER_0_994
*1649 FILLER_100_1003
*1650 FILLER_100_1015
*1651 FILLER_100_1027
*1652 FILLER_100_103
*1653 FILLER_100_1039
*1654 FILLER_100_1047
*1655 FILLER_100_1051
*1656 FILLER_100_1063
*1657 FILLER_100_1075
*1658 FILLER_100_1087
*1659 FILLER_100_1099
*1660 FILLER_100_1107
*1661 FILLER_100_1111
*1662 FILLER_100_1123
*1663 FILLER_100_1135
*1664 FILLER_100_1147
*1665 FILLER_100_115
*1666 FILLER_100_1159
*1667 FILLER_100_1167
*1668 FILLER_100_1171
*1669 FILLER_100_1183
*1670 FILLER_100_1195
*1671 FILLER_100_1207
*1672 FILLER_100_1219
*1673 FILLER_100_1227
*1674 FILLER_100_1231
*1675 FILLER_100_1243
*1676 FILLER_100_1255
*1677 FILLER_100_1267
*1678 FILLER_100_127
*1679 FILLER_100_1279
*1680 FILLER_100_1287
*1681 FILLER_100_1291
*1682 FILLER_100_1303
*1683 FILLER_100_1315
*1684 FILLER_100_1327
*1685 FILLER_100_1339
*1686 FILLER_100_1347
*1687 FILLER_100_1351
*1688 FILLER_100_1363
*1689 FILLER_100_1375
*1690 FILLER_100_1387
*1691 FILLER_100_139
*1692 FILLER_100_1399
*1693 FILLER_100_1407
*1694 FILLER_100_1411
*1695 FILLER_100_1423
*1696 FILLER_100_1435
*1697 FILLER_100_1447
*1698 FILLER_100_1459
*1699 FILLER_100_1467
*1700 FILLER_100_147
*1701 FILLER_100_1471
*1702 FILLER_100_1483
*1703 FILLER_100_1495
*1704 FILLER_100_15
*1705 FILLER_100_1507
*1706 FILLER_100_151
*1707 FILLER_100_1519
*1708 FILLER_100_1527
*1709 FILLER_100_1531
*1710 FILLER_100_1543
*1711 FILLER_100_1555
*1712 FILLER_100_1567
*1713 FILLER_100_1579
*1714 FILLER_100_1587
*1715 FILLER_100_1591
*1716 FILLER_100_1603
*1717 FILLER_100_1615
*1718 FILLER_100_1627
*1719 FILLER_100_163
*1720 FILLER_100_1639
*1721 FILLER_100_1647
*1722 FILLER_100_1651
*1723 FILLER_100_1663
*1724 FILLER_100_1675
*1725 FILLER_100_1687
*1726 FILLER_100_1699
*1727 FILLER_100_1707
*1728 FILLER_100_1711
*1729 FILLER_100_1723
*1730 FILLER_100_1735